<?xml version="1.0" encoding="UTF-8"?>

<!-- generated on 2025-11-16T19:01:46.351819-04:00 by Eclipse SUMO netedit 1.25.0
-->

<routes xmlns:xsi="http://www.w3.org/2001/XMLSchema-instance" xsi:noNamespaceSchemaLocation="http://sumo.dlr.de/xsd/routes_file.xsd">
    <!-- Vehicles, persons and containers (sorted by depart) -->
    <flow id="f_0" begin="0.00" end="3600.00" perHour="1800.00" from="-E3" to="E1"/>
    <flow id="f_1" begin="0.00" end="3600.00" perHour="1800.00" from="-E3" to="-E0.101"/>
    <flow id="f_2" begin="0.00" end="3600.00" perHour="1800.00" from="-E0" to="E3"/>
    <flow id="f_3" begin="0.00" end="3600.00" perHour="1800.00" from="-E0" to="-E0.101"/>
    <flow id="f_4" begin="0.00" end="3600.00" perHour="1800.00" from="-E0" to="E1"/>
    <flow id="f_5" begin="0.00" end="3600.00" perHour="1800.00" from="-E1" to="E0.88"/>
    <flow id="f_6" begin="0.00" end="3600.00" perHour="1800.00" from="-E1" to="-E0.101"/>
    <flow id="f_7" begin="0.00" end="3600.00" perHour="1800.00" from="-E1" to="E3"/>
    <personFlow id="pf_0" begin="0.00" end="3600.00" period="exp(0.15)">
        <personTrip from="-E0" to="-E0.101"/>
    </personFlow>
</routes>
