<?xml version="1.0" encoding="UTF-8"?>

<!-- generated on 2025-11-16T22:21:56.331245-04:00 by Eclipse SUMO netedit 1.25.0
<neteditConfiguration xmlns:xsi="http://www.w3.org/2001/XMLSchema-instance" xsi:noNamespaceSchemaLocation="http://sumo.dlr.de/xsd/neteditConfiguration.xsd">

    <input>
        <sumocfg-file value="C:\Users\wmartinez\Documents\Whady\examples\trafficRL\trigal.sumocfg"/>
        <route-files value="C:\Users\wmartinez\Documents\Whady\examples\trafficRL\trigal_peatones.rou.xml"/>
        <sumo-net-file value="C:\Users\wmartinez\Documents\Whady\examples\trafficRL\trigal_peatones.net.xml"/>
    </input>

    <output>
        <output-file value="C:\Users\wmartinez\Documents\Whady\examples\trafficRL\trigal_peatones.net.xml"/>
    </output>

    <processing>
        <geometry.min-radius.fix.railways value="false"/>
        <geometry.avoid-overlap value="false"/>
        <geometry.max-grade.fix value="false"/>
        <offset.disable-normalization value="true"/>
        <lefthand value="0"/>
    </processing>

    <junctions>
        <no-internal-links value="false"/>
        <no-turnarounds value="true"/>
        <junctions.corner-detail value="5"/>
        <junctions.limit-turn-speed value="5.50"/>
        <rectangular-lane-cut value="0"/>
    </junctions>

    <pedestrian>
        <walkingareas value="0"/>
    </pedestrian>

</neteditConfiguration>
-->

<net version="1.20" junctionCornerDetail="5" limitTurnSpeed="5.50" avoidOverlap="0" xmlns:xsi="http://www.w3.org/2001/XMLSchema-instance" xsi:noNamespaceSchemaLocation="http://sumo.dlr.de/xsd/net_file.xsd">

    <location netOffset="0.00,0.00" convBoundary="-87.87,-98.83,97.88,107.52" origBoundary="-10000000000.00,-10000000000.00,10000000000.00,10000000000.00" projParameter="!"/>

    <edge id=":J0_w0" function="walkingarea">
        <lane id=":J0_w0_0" index="0" allow="pedestrian" speed="2.78" length="14.80" width="2.00" shape="-87.87,-7.05 -87.88,-9.05 -87.86,7.75 -87.87,5.75"/>
    </edge>
    <edge id=":J1_w0" function="walkingarea">
        <lane id=":J1_w0_0" index="0" allow="pedestrian" speed="2.78" length="14.80" width="2.00" shape="97.88,5.63 97.89,7.63 97.87,-9.17 97.88,-7.17"/>
    </edge>
    <edge id=":J4_w0" function="walkingarea">
        <lane id=":J4_w0_0" index="0" allow="pedestrian" speed="2.78" length="14.80" width="2.00" shape="7.17,-98.83 9.17,-98.83 -7.63,-98.83 -5.63,-98.83"/>
    </edge>
    <edge id=":J8_w0" function="walkingarea">
        <lane id=":J8_w0_0" index="0" allow="pedestrian" speed="2.78" length="14.80" width="2.00" shape="-5.78,107.52 -7.78,107.52 9.02,107.52 7.02,107.52"/>
    </edge>
    <edge id=":clusterJ3_clusterJ7_clusterJ4_J6_J7_0" function="internal">
        <lane id=":clusterJ3_clusterJ7_clusterJ4_J6_J7_0_0" index="0" disallow="pedestrian" speed="6.51" length="4.75" shape="-4.18,9.70 -4.53,7.25 -5.58,5.50 -5.78,5.38"/>
        <lane id=":clusterJ3_clusterJ7_clusterJ4_J6_J7_0_1" index="1" disallow="pedestrian" speed="7.33" length="7.09" shape="-4.18,9.70 -4.53,5.85 -5.58,3.10 -5.78,2.91"/>
    </edge>
    <edge id=":clusterJ3_clusterJ7_clusterJ4_J6_J7_2" function="internal">
        <lane id=":clusterJ3_clusterJ7_clusterJ4_J6_J7_2_0" index="0" disallow="pedestrian" speed="13.89" length="20.82" shape="-4.18,9.70 -4.03,-11.12"/>
        <lane id=":clusterJ3_clusterJ7_clusterJ4_J6_J7_2_1" index="1" disallow="pedestrian" speed="13.89" length="20.82" shape="-0.98,9.70 -0.83,-11.12"/>
    </edge>
    <edge id=":clusterJ3_clusterJ7_clusterJ4_J6_J7_4" function="internal">
        <lane id=":clusterJ3_clusterJ7_clusterJ4_J6_J7_4_0" index="0" disallow="pedestrian" speed="9.29" length="15.45" shape="-0.98,9.70 -0.22,4.45 2.06,0.69 5.86,-1.56 7.17,-1.75"/>
    </edge>
    <edge id=":clusterJ3_clusterJ7_clusterJ4_J6_J7_20" function="internal">
        <lane id=":clusterJ3_clusterJ7_clusterJ4_J6_J7_20_0" index="0" disallow="pedestrian" speed="6.51" length="4.28" shape="-5.78,5.38 -7.33,4.45 -9.78,4.10"/>
        <lane id=":clusterJ3_clusterJ7_clusterJ4_J6_J7_20_1" index="0" disallow="pedestrian" speed="7.33" length="4.64" shape="-5.78,2.91 -7.33,1.45 -9.78,0.90"/>
    </edge>
    <edge id=":clusterJ3_clusterJ7_clusterJ4_J6_J7_21" function="internal">
        <lane id=":clusterJ3_clusterJ7_clusterJ4_J6_J7_21_0" index="0" disallow="pedestrian" speed="9.29" length="4.04" shape="7.17,-1.75 11.17,-2.32"/>
    </edge>
    <edge id=":clusterJ3_clusterJ7_clusterJ4_J6_J7_5" function="internal">
        <lane id=":clusterJ3_clusterJ7_clusterJ4_J6_J7_5_0" index="0" disallow="pedestrian" speed="6.55" length="4.87" shape="11.18,4.09 8.66,4.44 6.86,5.49 6.73,5.70"/>
        <lane id=":clusterJ3_clusterJ7_clusterJ4_J6_J7_5_1" index="1" disallow="pedestrian" speed="7.37" length="7.21" shape="11.18,4.09 7.26,4.44 4.46,5.50 4.26,5.70"/>
    </edge>
    <edge id=":clusterJ3_clusterJ7_clusterJ4_J6_J7_7" function="internal">
        <lane id=":clusterJ3_clusterJ7_clusterJ4_J6_J7_7_0" index="0" disallow="pedestrian" speed="13.89" length="20.96" shape="11.18,4.09 -9.78,4.10"/>
        <lane id=":clusterJ3_clusterJ7_clusterJ4_J6_J7_7_1" index="1" disallow="pedestrian" speed="13.89" length="20.96" shape="11.18,0.89 -9.78,0.90"/>
    </edge>
    <edge id=":clusterJ3_clusterJ7_clusterJ4_J6_J7_9" function="internal">
        <lane id=":clusterJ3_clusterJ7_clusterJ4_J6_J7_9_0" index="0" disallow="pedestrian" speed="9.26" length="15.32" shape="11.18,0.89 5.92,0.14 2.17,-2.11 -0.08,-5.86 -0.26,-7.12"/>
    </edge>
    <edge id=":clusterJ3_clusterJ7_clusterJ4_J6_J7_22" function="internal">
        <lane id=":clusterJ3_clusterJ7_clusterJ4_J6_J7_22_0" index="0" disallow="pedestrian" speed="6.55" length="4.30" shape="6.73,5.70 5.78,7.25 5.42,9.70"/>
        <lane id=":clusterJ3_clusterJ7_clusterJ4_J6_J7_22_1" index="0" disallow="pedestrian" speed="7.37" length="4.66" shape="4.26,5.70 2.78,7.25 2.22,9.70"/>
    </edge>
    <edge id=":clusterJ3_clusterJ7_clusterJ4_J6_J7_23" function="internal">
        <lane id=":clusterJ3_clusterJ7_clusterJ4_J6_J7_23_0" index="0" disallow="pedestrian" speed="9.26" length="4.04" shape="-0.26,-7.12 -0.83,-11.12"/>
    </edge>
    <edge id=":clusterJ3_clusterJ7_clusterJ4_J6_J7_10" function="internal">
        <lane id=":clusterJ3_clusterJ7_clusterJ4_J6_J7_10_0" index="0" disallow="pedestrian" speed="6.51" length="4.75" shape="5.57,-11.12 5.92,-8.66 6.97,-6.91 7.17,-6.79"/>
    </edge>
    <edge id=":clusterJ3_clusterJ7_clusterJ4_J6_J7_11" function="internal">
        <lane id=":clusterJ3_clusterJ7_clusterJ4_J6_J7_11_0" index="0" disallow="pedestrian" speed="13.89" length="20.82" shape="5.57,-11.12 5.42,9.70"/>
        <lane id=":clusterJ3_clusterJ7_clusterJ4_J6_J7_11_1" index="1" disallow="pedestrian" speed="13.89" length="20.82" shape="2.37,-11.12 2.22,9.70"/>
    </edge>
    <edge id=":clusterJ3_clusterJ7_clusterJ4_J6_J7_13" function="internal">
        <lane id=":clusterJ3_clusterJ7_clusterJ4_J6_J7_13_0" index="0" disallow="pedestrian" speed="9.87" length="18.06" shape="2.37,-11.12 1.61,-4.46 -0.67,0.30 -4.47,3.15 -5.78,3.39"/>
        <lane id=":clusterJ3_clusterJ7_clusterJ4_J6_J7_13_1" index="1" disallow="pedestrian" speed="9.29" length="15.45" shape="2.37,-11.12 1.61,-5.86 -0.67,-2.10 -4.47,0.15 -5.78,0.34"/>
    </edge>
    <edge id=":clusterJ3_clusterJ7_clusterJ4_J6_J7_24" function="internal">
        <lane id=":clusterJ3_clusterJ7_clusterJ4_J6_J7_24_0" index="0" disallow="pedestrian" speed="6.51" length="4.28" shape="7.17,-6.79 8.72,-5.87 11.17,-5.52"/>
    </edge>
    <edge id=":clusterJ3_clusterJ7_clusterJ4_J6_J7_25" function="internal">
        <lane id=":clusterJ3_clusterJ7_clusterJ4_J6_J7_25_0" index="0" disallow="pedestrian" speed="9.87" length="4.06" shape="-5.78,3.39 -9.78,4.10"/>
        <lane id=":clusterJ3_clusterJ7_clusterJ4_J6_J7_25_1" index="0" disallow="pedestrian" speed="9.29" length="4.04" shape="-5.78,0.34 -9.78,0.90"/>
    </edge>
    <edge id=":clusterJ3_clusterJ7_clusterJ4_J6_J7_15" function="internal">
        <lane id=":clusterJ3_clusterJ7_clusterJ4_J6_J7_15_0" index="0" disallow="pedestrian" speed="6.55" length="4.87" shape="-9.79,-5.50 -7.27,-5.86 -5.47,-6.91 -5.34,-7.12"/>
        <lane id=":clusterJ3_clusterJ7_clusterJ4_J6_J7_15_1" index="1" disallow="pedestrian" speed="7.37" length="7.21" shape="-9.79,-5.50 -5.87,-5.86 -3.07,-6.91 -2.87,-7.12"/>
    </edge>
    <edge id=":clusterJ3_clusterJ7_clusterJ4_J6_J7_17" function="internal">
        <lane id=":clusterJ3_clusterJ7_clusterJ4_J6_J7_17_0" index="0" disallow="pedestrian" speed="13.89" length="20.96" shape="-9.79,-5.50 11.17,-5.52"/>
        <lane id=":clusterJ3_clusterJ7_clusterJ4_J6_J7_17_1" index="1" disallow="pedestrian" speed="13.89" length="20.96" shape="-9.79,-2.30 11.17,-2.32"/>
    </edge>
    <edge id=":clusterJ3_clusterJ7_clusterJ4_J6_J7_19" function="internal">
        <lane id=":clusterJ3_clusterJ7_clusterJ4_J6_J7_19_0" index="0" disallow="pedestrian" speed="9.26" length="15.32" shape="-9.79,-2.30 -4.53,-1.56 -0.78,0.69 1.47,4.45 1.65,5.70"/>
    </edge>
    <edge id=":clusterJ3_clusterJ7_clusterJ4_J6_J7_26" function="internal">
        <lane id=":clusterJ3_clusterJ7_clusterJ4_J6_J7_26_0" index="0" disallow="pedestrian" speed="6.55" length="4.30" shape="-5.34,-7.12 -4.39,-8.66 -4.03,-11.12"/>
        <lane id=":clusterJ3_clusterJ7_clusterJ4_J6_J7_26_1" index="0" disallow="pedestrian" speed="7.37" length="4.66" shape="-2.87,-7.12 -1.39,-8.66 -0.83,-11.12"/>
    </edge>
    <edge id=":clusterJ3_clusterJ7_clusterJ4_J6_J7_27" function="internal">
        <lane id=":clusterJ3_clusterJ7_clusterJ4_J6_J7_27_0" index="0" disallow="pedestrian" speed="9.26" length="4.04" shape="1.65,5.70 2.22,9.70"/>
    </edge>
    <edge id=":clusterJ3_clusterJ7_clusterJ4_J6_J7_c0" function="crossing" crossingEdges="E3 -E3">
        <lane id=":clusterJ3_clusterJ7_clusterJ4_J6_J7_c0_0" index="0" allow="pedestrian" speed="2.78" length="12.80" width="4.00" shape="7.02,7.70 -5.78,7.70" outlineShape="7.02,9.70 -5.88,9.70 -5.78,9.70 -5.89,8.48 -6.22,7.48 -6.78,6.70 -7.56,6.15 -7.89,6.04 -5.78,5.70 7.02,5.70 9.13,6.05 8.87,6.14 8.06,6.69 7.48,7.47 7.14,8.48"/>
    </edge>
    <edge id=":clusterJ3_clusterJ7_clusterJ4_J6_J7_c1" function="crossing" crossingEdges="E0.88 -E0">
        <lane id=":clusterJ3_clusterJ7_clusterJ4_J6_J7_c1_0" index="0" allow="pedestrian" speed="2.78" length="12.81" width="4.00" shape="9.17,-7.12 9.18,5.69" outlineShape="11.17,-7.12 11.18,5.69 11.18,5.79 11.18,5.69 9.91,5.80 8.87,6.14 8.06,6.69 7.48,7.47 7.38,7.76 7.18,5.69 7.17,-7.11 7.50,-9.23 7.61,-8.89 8.17,-8.11 8.95,-7.56 9.95,-7.23"/>
    </edge>
    <edge id=":clusterJ3_clusterJ7_clusterJ4_J6_J7_c2" function="crossing" crossingEdges="E1 -E1">
        <lane id=":clusterJ3_clusterJ7_clusterJ4_J6_J7_c2_0" index="0" allow="pedestrian" speed="2.78" length="12.80" width="4.00" shape="-5.63,-9.12 7.17,-9.12" outlineShape="-5.63,-11.12 7.27,-11.12 7.28,-9.89 7.61,-8.89 8.17,-8.11 8.95,-7.56 9.28,-7.45 7.17,-7.12 -5.63,-7.12 -7.74,-7.46 -7.48,-7.55 -6.67,-8.11 -6.09,-8.89 -5.75,-9.89"/>
    </edge>
    <edge id=":clusterJ3_clusterJ7_clusterJ4_J6_J7_c3" function="crossing" crossingEdges="-E0.101 E0">
        <lane id=":clusterJ3_clusterJ7_clusterJ4_J6_J7_c3_0" index="0" allow="pedestrian" speed="2.78" length="12.81" width="4.00" shape="-7.78,5.70 -7.79,-7.10" outlineShape="-9.78,5.70 -9.79,-7.10 -9.79,-7.20 -9.79,-7.10 -8.52,-7.22 -7.48,-7.55 -6.67,-8.11 -6.09,-8.89 -5.99,-9.18 -5.79,-7.11 -5.78,5.70 -6.11,7.81 -6.22,7.48 -6.78,6.70 -7.56,6.15 -8.56,5.81"/>
    </edge>
    <edge id=":clusterJ3_clusterJ7_clusterJ4_J6_J7_w0" function="walkingarea">
        <lane id=":clusterJ3_clusterJ7_clusterJ4_J6_J7_w0_0" index="0" allow="pedestrian" speed="2.78" length="3.30" width="4.00" shape="-9.78,5.70 -9.78,7.70 -7.78,9.70 -5.78,9.70 -5.89,8.48 -6.22,7.48 -6.78,6.70 -7.56,6.15 -8.56,5.81"/>
    </edge>
    <edge id=":clusterJ3_clusterJ7_clusterJ4_J6_J7_w1" function="walkingarea">
        <lane id=":clusterJ3_clusterJ7_clusterJ4_J6_J7_w1_0" index="0" allow="pedestrian" speed="2.78" length="3.37" width="4.00" shape="7.02,9.70 9.02,9.70 11.18,7.69 11.18,5.69 9.91,5.80 8.87,6.14 8.06,6.69 7.48,7.47 7.14,8.48"/>
    </edge>
    <edge id=":clusterJ3_clusterJ7_clusterJ4_J6_J7_w2" function="walkingarea">
        <lane id=":clusterJ3_clusterJ7_clusterJ4_J6_J7_w2_0" index="0" allow="pedestrian" speed="2.78" length="3.30" width="4.00" shape="11.17,-7.12 11.17,-9.12 9.17,-11.12 7.17,-11.12 7.28,-9.89 7.61,-8.89 8.17,-8.11 8.95,-7.56 9.95,-7.23"/>
    </edge>
    <edge id=":clusterJ3_clusterJ7_clusterJ4_J6_J7_w3" function="walkingarea">
        <lane id=":clusterJ3_clusterJ7_clusterJ4_J6_J7_w3_0" index="0" allow="pedestrian" speed="2.78" length="3.37" width="4.00" shape="-5.63,-11.12 -7.63,-11.12 -9.79,-9.10 -9.79,-7.10 -8.52,-7.22 -7.48,-7.55 -6.67,-8.11 -6.09,-8.89 -5.75,-9.89"/>
    </edge>

    <edge id="-E0" from="J1" to="clusterJ3_clusterJ7_clusterJ4_J6_J7" priority="-1" shape="97.88,-0.77 -3.97,-0.70">
        <lane id="-E0_0" index="0" allow="pedestrian" speed="13.89" length="86.71" width="2.00" shape="97.89,6.63 11.18,6.69"/>
        <lane id="-E0_1" index="1" disallow="pedestrian" speed="13.89" length="86.71" shape="97.88,4.03 11.18,4.09"/>
        <lane id="-E0_2" index="2" disallow="pedestrian" speed="13.89" length="86.71" shape="97.88,0.83 11.18,0.89"/>
    </edge>
    <edge id="-E0.101" from="clusterJ3_clusterJ7_clusterJ4_J6_J7" to="J0" priority="-1" shape="-3.97,-0.70 -87.87,-0.65">
        <lane id="-E0.101_0" index="0" allow="pedestrian" speed="13.89" length="78.09" width="2.00" shape="-9.78,6.70 -87.87,6.75"/>
        <lane id="-E0.101_1" index="1" disallow="pedestrian" speed="13.89" length="78.09" shape="-9.78,4.10 -87.87,4.15"/>
        <lane id="-E0.101_2" index="2" disallow="pedestrian" speed="13.89" length="78.09" shape="-9.78,0.90 -87.87,0.95"/>
    </edge>
    <edge id="-E1" from="J4" to="clusterJ3_clusterJ7_clusterJ4_J6_J7" priority="-1" shape="0.77,-98.83 0.77,-7.21">
        <lane id="-E1_0" index="0" allow="pedestrian" speed="13.89" length="87.71" width="2.00" shape="8.17,-98.83 8.17,-11.12"/>
        <lane id="-E1_1" index="1" disallow="pedestrian" speed="13.89" length="87.71" shape="5.57,-98.83 5.57,-11.12"/>
        <lane id="-E1_2" index="2" disallow="pedestrian" speed="13.89" length="87.71" shape="2.37,-98.83 2.37,-11.12"/>
    </edge>
    <edge id="-E3" from="J8" to="clusterJ3_clusterJ7_clusterJ4_J6_J7" priority="-1" shape="0.62,107.52 0.62,7.66">
        <lane id="-E3_0" index="0" allow="pedestrian" speed="13.89" length="97.82" width="2.00" shape="-6.78,107.52 -6.78,9.70"/>
        <lane id="-E3_1" index="1" disallow="pedestrian" speed="13.89" length="97.82" shape="-4.18,107.52 -4.18,9.70"/>
        <lane id="-E3_2" index="2" disallow="pedestrian" speed="13.89" length="97.82" shape="-0.98,107.52 -0.98,9.70"/>
    </edge>
    <edge id="E0" from="J0" to="clusterJ3_clusterJ7_clusterJ4_J6_J7" priority="-1" shape="-87.87,-0.65 0.65,-0.71">
        <lane id="E0_0" index="0" allow="pedestrian" speed="13.89" length="78.09" width="2.00" shape="-87.88,-8.05 -9.79,-8.10"/>
        <lane id="E0_1" index="1" disallow="pedestrian" speed="13.89" length="78.09" shape="-87.87,-5.45 -9.79,-5.50"/>
        <lane id="E0_2" index="2" disallow="pedestrian" speed="13.89" length="78.09" shape="-87.87,-2.25 -9.79,-2.30"/>
    </edge>
    <edge id="E0.88" from="clusterJ3_clusterJ7_clusterJ4_J6_J7" to="J1" priority="-1" shape="0.65,-0.71 97.88,-0.77">
        <lane id="E0.88_0" index="0" allow="pedestrian" speed="13.89" length="86.70" width="2.00" shape="11.17,-8.12 97.88,-8.17"/>
        <lane id="E0.88_1" index="1" disallow="pedestrian" speed="13.89" length="86.70" shape="11.17,-5.52 97.88,-5.57"/>
        <lane id="E0.88_2" index="2" disallow="pedestrian" speed="13.89" length="86.70" shape="11.17,-2.32 97.88,-2.37"/>
    </edge>
    <edge id="E1" from="clusterJ3_clusterJ7_clusterJ4_J6_J7" to="J4" priority="-1" shape="0.77,-7.21 0.77,-98.83">
        <lane id="E1_0" index="0" allow="pedestrian" speed="13.89" length="87.71" width="2.00" shape="-6.63,-11.12 -6.63,-98.83"/>
        <lane id="E1_1" index="1" disallow="pedestrian" speed="13.89" length="87.71" shape="-4.03,-11.12 -4.03,-98.83"/>
        <lane id="E1_2" index="2" disallow="pedestrian" speed="13.89" length="87.71" shape="-0.83,-11.12 -0.83,-98.83"/>
    </edge>
    <edge id="E3" from="clusterJ3_clusterJ7_clusterJ4_J6_J7" to="J8" priority="-1" shape="0.62,7.66 0.62,107.52">
        <lane id="E3_0" index="0" allow="pedestrian" speed="13.89" length="97.82" width="2.00" shape="8.02,9.70 8.02,107.52"/>
        <lane id="E3_1" index="1" disallow="pedestrian" speed="13.89" length="97.82" shape="5.42,9.70 5.42,107.52"/>
        <lane id="E3_2" index="2" disallow="pedestrian" speed="13.89" length="97.82" shape="2.22,9.70 2.22,107.52"/>
    </edge>

    <tlLogic id="J5" type="static" programID="0" offset="0">
        <phase duration="20" state="GGGGOrrrrOGGGrrrrrrrrrrr"/>
        <phase duration="3"  state="yyyyrrrrrryyyrrrrrrrrrrr"/>
        <phase duration="15" state="rrrrrrrrrrrrrrrrrrrrGGGG" name="peaton"/>
        <phase duration="40" state="rrrrrGGGGrrrrrrGGGGrrrrr"/>
        <phase duration="3"  state="rrrrryyyyrrrrrryyyyrrrrr"/>
        <phase duration="20" state="GrrrrrrrrrrrrrrGGGGGrrrr"/>
        <phase duration="3"  state="yrrrrrrrrrrrrrryyyyyyrrr"/>
        <phase duration="15" state="rrrrrrrrrrGGGGGrrrrrrrrr"/>
        <phase duration="3"  state="rrrrrrrrrryyyyyrrrrrrrrr"/>
        <phase duration="15" state="rrrrrrrrrrrrrrrrrrrrGGGG" name="peaton"/>
    </tlLogic>

    <junction id="J0" type="dead_end" x="-87.87" y="-0.65" incLanes="-E0.101_0 -E0.101_1 -E0.101_2" intLanes="" shape="-87.87,-0.65 -87.86,7.75 -87.87,-0.65"/>
    <junction id="J1" type="dead_end" x="97.88" y="-0.77" incLanes="E0.88_0 E0.88_1 E0.88_2" intLanes="" shape="97.88,-0.77 97.87,-9.17 97.88,-0.77"/>
    <junction id="J4" type="dead_end" x="0.77" y="-98.83" incLanes="E1_0 E1_1 E1_2" intLanes="" shape="0.77,-98.83 -7.63,-98.83 0.77,-98.83"/>
    <junction id="J8" type="dead_end" x="0.62" y="107.52" incLanes="E3_0 E3_1 E3_2" intLanes="" shape="0.62,107.52 9.02,107.52 0.62,107.52"/>
    <junction id="clusterJ3_clusterJ7_clusterJ4_J6_J7" type="traffic_light" x="0.34" y="-2.33" incLanes="-E3_0 -E3_1 -E3_2 -E0_0 -E0_1 -E0_2 -E1_0 -E1_1 -E1_2 E0_0 E0_1 E0_2 :clusterJ3_clusterJ7_clusterJ4_J6_J7_w1_0 :clusterJ3_clusterJ7_clusterJ4_J6_J7_w2_0 :clusterJ3_clusterJ7_clusterJ4_J6_J7_w3_0 :clusterJ3_clusterJ7_clusterJ4_J6_J7_w0_0" intLanes=":clusterJ3_clusterJ7_clusterJ4_J6_J7_20_0 :clusterJ3_clusterJ7_clusterJ4_J6_J7_20_1 :clusterJ3_clusterJ7_clusterJ4_J6_J7_2_0 :clusterJ3_clusterJ7_clusterJ4_J6_J7_2_1 :clusterJ3_clusterJ7_clusterJ4_J6_J7_21_0 :clusterJ3_clusterJ7_clusterJ4_J6_J7_22_0 :clusterJ3_clusterJ7_clusterJ4_J6_J7_22_1 :clusterJ3_clusterJ7_clusterJ4_J6_J7_7_0 :clusterJ3_clusterJ7_clusterJ4_J6_J7_7_1 :clusterJ3_clusterJ7_clusterJ4_J6_J7_23_0 :clusterJ3_clusterJ7_clusterJ4_J6_J7_24_0 :clusterJ3_clusterJ7_clusterJ4_J6_J7_11_0 :clusterJ3_clusterJ7_clusterJ4_J6_J7_11_1 :clusterJ3_clusterJ7_clusterJ4_J6_J7_25_0 :clusterJ3_clusterJ7_clusterJ4_J6_J7_25_1 :clusterJ3_clusterJ7_clusterJ4_J6_J7_26_0 :clusterJ3_clusterJ7_clusterJ4_J6_J7_26_1 :clusterJ3_clusterJ7_clusterJ4_J6_J7_17_0 :clusterJ3_clusterJ7_clusterJ4_J6_J7_17_1 :clusterJ3_clusterJ7_clusterJ4_J6_J7_27_0 :clusterJ3_clusterJ7_clusterJ4_J6_J7_c0_0 :clusterJ3_clusterJ7_clusterJ4_J6_J7_c1_0 :clusterJ3_clusterJ7_clusterJ4_J6_J7_c2_0 :clusterJ3_clusterJ7_clusterJ4_J6_J7_c3_0" shape="-7.78,9.70 9.02,9.70 9.26,8.58 9.56,8.19 9.98,7.91 10.52,7.75 11.18,7.69 11.17,-9.12 10.06,-9.34 9.67,-9.62 9.39,-10.00 9.23,-10.50 9.17,-11.12 -7.63,-11.12 -7.87,-10.00 -8.17,-9.61 -8.59,-9.33 -9.13,-9.16 -9.79,-9.10 -9.78,7.70 -8.67,7.93 -8.28,8.20 -8.00,8.59 -7.84,9.09">
        <request index="0"  response="100100000010000000000000" foes="100100000110000110000000" cont="1"/>
        <request index="1"  response="100100000110000000000000" foes="100100000110000110000000" cont="1"/>
        <request index="2"  response="010110011110000000000000" foes="010111111110001110000000" cont="0"/>
        <request index="3"  response="010110010110001000000000" foes="010111111110001110000000" cont="0"/>
        <request index="4"  response="001110000001101000000000" foes="001111100001101110000000" cont="1"/>
        <request index="5"  response="001100000001100000000000" foes="001110000001100000000000" cont="1"/>
        <request index="6"  response="001110000001100000000000" foes="001110000001100000000000" cont="1"/>
        <request index="7"  response="101010000111100000011111" foes="101010000111100000011111" cont="0"/>
        <request index="8"  response="101010000111100000011111" foes="101010000111100000011111" cont="0"/>
        <request index="9"  response="011001111111100000011100" foes="011001111111100000011100" cont="1"/>
        <request index="10" response="011000000000000000000000" foes="011001100000000000000000" cont="1"/>
        <request index="11" response="010100000000001001110000" foes="010111100000001111110000" cont="0"/>
        <request index="12" response="010110000000001001010000" foes="010111100000001111110000" cont="0"/>
        <request index="13" response="110010000000001000001111" foes="110011100000001110001111" cont="1"/>
        <request index="14" response="110010000000001000001111" foes="110011100000001110001111" cont="1"/>
        <request index="15" response="110000000000000000001100" foes="110000000000001000001100" cont="1"/>
        <request index="16" response="110000000000001000001100" foes="110000000000001000001100" cont="1"/>
        <request index="17" response="101000000111111000011100" foes="101000000111111000011100" cont="0"/>
        <request index="18" response="101000000111111000011100" foes="101000000111111000011100" cont="0"/>
        <request index="19" response="100100000111100111111100" foes="100100000111100111111100" cont="1"/>
        <request index="20" response="000000000000000000000000" foes="000010000001100001111111" cont="0"/>
        <request index="21" response="000000000000000000000000" foes="000001100000011111110000" cont="0"/>
        <request index="22" response="000000000000000000000000" foes="000000011111111000001100" cont="0"/>
        <request index="23" response="000000000000000000000000" foes="000011111110000110000011" cont="0"/>
    </junction>

    <junction id=":clusterJ3_clusterJ7_clusterJ4_J6_J7_20_0" type="internal" x="-5.78" y="5.38" incLanes=":clusterJ3_clusterJ7_clusterJ4_J6_J7_0_0" intLanes=":clusterJ3_clusterJ7_clusterJ4_J6_J7_7_0 :clusterJ3_clusterJ7_clusterJ4_J6_J7_7_1 :clusterJ3_clusterJ7_clusterJ4_J6_J7_13_0 :clusterJ3_clusterJ7_clusterJ4_J6_J7_13_1 :clusterJ3_clusterJ7_clusterJ4_J6_J7_c0_0 :clusterJ3_clusterJ7_clusterJ4_J6_J7_c3_0"/>
    <junction id=":clusterJ3_clusterJ7_clusterJ4_J6_J7_20_1" type="internal" x="-5.78" y="2.91" incLanes=":clusterJ3_clusterJ7_clusterJ4_J6_J7_0_1" intLanes=":clusterJ3_clusterJ7_clusterJ4_J6_J7_7_0 :clusterJ3_clusterJ7_clusterJ4_J6_J7_7_1 :clusterJ3_clusterJ7_clusterJ4_J6_J7_13_0 :clusterJ3_clusterJ7_clusterJ4_J6_J7_13_1 :clusterJ3_clusterJ7_clusterJ4_J6_J7_c0_0 :clusterJ3_clusterJ7_clusterJ4_J6_J7_c3_0"/>
    <junction id=":clusterJ3_clusterJ7_clusterJ4_J6_J7_21_0" type="internal" x="7.17" y="-1.75" incLanes=":clusterJ3_clusterJ7_clusterJ4_J6_J7_4_0" intLanes=":clusterJ3_clusterJ7_clusterJ4_J6_J7_7_0 :clusterJ3_clusterJ7_clusterJ4_J6_J7_7_1 :clusterJ3_clusterJ7_clusterJ4_J6_J7_9_0 :clusterJ3_clusterJ7_clusterJ4_J6_J7_10_0 :clusterJ3_clusterJ7_clusterJ4_J6_J7_11_0 :clusterJ3_clusterJ7_clusterJ4_J6_J7_11_1 :clusterJ3_clusterJ7_clusterJ4_J6_J7_17_0 :clusterJ3_clusterJ7_clusterJ4_J6_J7_17_1 :clusterJ3_clusterJ7_clusterJ4_J6_J7_19_0 :clusterJ3_clusterJ7_clusterJ4_J6_J7_c0_0 :clusterJ3_clusterJ7_clusterJ4_J6_J7_c1_0"/>
    <junction id=":clusterJ3_clusterJ7_clusterJ4_J6_J7_22_0" type="internal" x="6.73" y="5.70" incLanes=":clusterJ3_clusterJ7_clusterJ4_J6_J7_5_0" intLanes=":clusterJ3_clusterJ7_clusterJ4_J6_J7_11_0 :clusterJ3_clusterJ7_clusterJ4_J6_J7_11_1 :clusterJ3_clusterJ7_clusterJ4_J6_J7_19_0 :clusterJ3_clusterJ7_clusterJ4_J6_J7_c0_0 :clusterJ3_clusterJ7_clusterJ4_J6_J7_c1_0"/>
    <junction id=":clusterJ3_clusterJ7_clusterJ4_J6_J7_22_1" type="internal" x="4.26" y="5.70" incLanes=":clusterJ3_clusterJ7_clusterJ4_J6_J7_5_1" intLanes=":clusterJ3_clusterJ7_clusterJ4_J6_J7_11_0 :clusterJ3_clusterJ7_clusterJ4_J6_J7_11_1 :clusterJ3_clusterJ7_clusterJ4_J6_J7_19_0 :clusterJ3_clusterJ7_clusterJ4_J6_J7_c0_0 :clusterJ3_clusterJ7_clusterJ4_J6_J7_c1_0"/>
    <junction id=":clusterJ3_clusterJ7_clusterJ4_J6_J7_23_0" type="internal" x="-0.26" y="-7.12" incLanes=":clusterJ3_clusterJ7_clusterJ4_J6_J7_9_0" intLanes=":clusterJ3_clusterJ7_clusterJ4_J6_J7_2_0 :clusterJ3_clusterJ7_clusterJ4_J6_J7_2_1 :clusterJ3_clusterJ7_clusterJ4_J6_J7_4_0 :clusterJ3_clusterJ7_clusterJ4_J6_J7_11_0 :clusterJ3_clusterJ7_clusterJ4_J6_J7_11_1 :clusterJ3_clusterJ7_clusterJ4_J6_J7_13_0 :clusterJ3_clusterJ7_clusterJ4_J6_J7_13_1 :clusterJ3_clusterJ7_clusterJ4_J6_J7_15_0 :clusterJ3_clusterJ7_clusterJ4_J6_J7_15_1 :clusterJ3_clusterJ7_clusterJ4_J6_J7_17_0 :clusterJ3_clusterJ7_clusterJ4_J6_J7_17_1 :clusterJ3_clusterJ7_clusterJ4_J6_J7_c1_0 :clusterJ3_clusterJ7_clusterJ4_J6_J7_c2_0"/>
    <junction id=":clusterJ3_clusterJ7_clusterJ4_J6_J7_24_0" type="internal" x="7.17" y="-6.79" incLanes=":clusterJ3_clusterJ7_clusterJ4_J6_J7_10_0" intLanes=":clusterJ3_clusterJ7_clusterJ4_J6_J7_4_0 :clusterJ3_clusterJ7_clusterJ4_J6_J7_17_0 :clusterJ3_clusterJ7_clusterJ4_J6_J7_17_1 :clusterJ3_clusterJ7_clusterJ4_J6_J7_c1_0 :clusterJ3_clusterJ7_clusterJ4_J6_J7_c2_0"/>
    <junction id=":clusterJ3_clusterJ7_clusterJ4_J6_J7_25_0" type="internal" x="-5.78" y="3.39" incLanes=":clusterJ3_clusterJ7_clusterJ4_J6_J7_13_0" intLanes=":clusterJ3_clusterJ7_clusterJ4_J6_J7_0_0 :clusterJ3_clusterJ7_clusterJ4_J6_J7_0_1 :clusterJ3_clusterJ7_clusterJ4_J6_J7_2_0 :clusterJ3_clusterJ7_clusterJ4_J6_J7_2_1 :clusterJ3_clusterJ7_clusterJ4_J6_J7_7_0 :clusterJ3_clusterJ7_clusterJ4_J6_J7_7_1 :clusterJ3_clusterJ7_clusterJ4_J6_J7_9_0 :clusterJ3_clusterJ7_clusterJ4_J6_J7_17_0 :clusterJ3_clusterJ7_clusterJ4_J6_J7_17_1 :clusterJ3_clusterJ7_clusterJ4_J6_J7_19_0 :clusterJ3_clusterJ7_clusterJ4_J6_J7_c2_0 :clusterJ3_clusterJ7_clusterJ4_J6_J7_c3_0"/>
    <junction id=":clusterJ3_clusterJ7_clusterJ4_J6_J7_25_1" type="internal" x="-5.78" y="0.34" incLanes=":clusterJ3_clusterJ7_clusterJ4_J6_J7_13_1" intLanes=":clusterJ3_clusterJ7_clusterJ4_J6_J7_0_0 :clusterJ3_clusterJ7_clusterJ4_J6_J7_0_1 :clusterJ3_clusterJ7_clusterJ4_J6_J7_2_0 :clusterJ3_clusterJ7_clusterJ4_J6_J7_2_1 :clusterJ3_clusterJ7_clusterJ4_J6_J7_7_0 :clusterJ3_clusterJ7_clusterJ4_J6_J7_7_1 :clusterJ3_clusterJ7_clusterJ4_J6_J7_9_0 :clusterJ3_clusterJ7_clusterJ4_J6_J7_17_0 :clusterJ3_clusterJ7_clusterJ4_J6_J7_17_1 :clusterJ3_clusterJ7_clusterJ4_J6_J7_19_0 :clusterJ3_clusterJ7_clusterJ4_J6_J7_c2_0 :clusterJ3_clusterJ7_clusterJ4_J6_J7_c3_0"/>
    <junction id=":clusterJ3_clusterJ7_clusterJ4_J6_J7_26_0" type="internal" x="-5.34" y="-7.12" incLanes=":clusterJ3_clusterJ7_clusterJ4_J6_J7_15_0" intLanes=":clusterJ3_clusterJ7_clusterJ4_J6_J7_2_0 :clusterJ3_clusterJ7_clusterJ4_J6_J7_2_1 :clusterJ3_clusterJ7_clusterJ4_J6_J7_9_0 :clusterJ3_clusterJ7_clusterJ4_J6_J7_c2_0 :clusterJ3_clusterJ7_clusterJ4_J6_J7_c3_0"/>
    <junction id=":clusterJ3_clusterJ7_clusterJ4_J6_J7_26_1" type="internal" x="-2.87" y="-7.12" incLanes=":clusterJ3_clusterJ7_clusterJ4_J6_J7_15_1" intLanes=":clusterJ3_clusterJ7_clusterJ4_J6_J7_2_0 :clusterJ3_clusterJ7_clusterJ4_J6_J7_2_1 :clusterJ3_clusterJ7_clusterJ4_J6_J7_9_0 :clusterJ3_clusterJ7_clusterJ4_J6_J7_c2_0 :clusterJ3_clusterJ7_clusterJ4_J6_J7_c3_0"/>
    <junction id=":clusterJ3_clusterJ7_clusterJ4_J6_J7_27_0" type="internal" x="1.65" y="5.70" incLanes=":clusterJ3_clusterJ7_clusterJ4_J6_J7_19_0" intLanes=":clusterJ3_clusterJ7_clusterJ4_J6_J7_2_0 :clusterJ3_clusterJ7_clusterJ4_J6_J7_2_1 :clusterJ3_clusterJ7_clusterJ4_J6_J7_4_0 :clusterJ3_clusterJ7_clusterJ4_J6_J7_5_0 :clusterJ3_clusterJ7_clusterJ4_J6_J7_5_1 :clusterJ3_clusterJ7_clusterJ4_J6_J7_7_0 :clusterJ3_clusterJ7_clusterJ4_J6_J7_7_1 :clusterJ3_clusterJ7_clusterJ4_J6_J7_11_0 :clusterJ3_clusterJ7_clusterJ4_J6_J7_11_1 :clusterJ3_clusterJ7_clusterJ4_J6_J7_13_0 :clusterJ3_clusterJ7_clusterJ4_J6_J7_13_1 :clusterJ3_clusterJ7_clusterJ4_J6_J7_c0_0 :clusterJ3_clusterJ7_clusterJ4_J6_J7_c3_0"/>

    <connection from="-E0" to="E3" fromLane="1" toLane="1" via=":clusterJ3_clusterJ7_clusterJ4_J6_J7_5_0" tl="J5" linkIndex="5" dir="r" state="o"/>
    <connection from="-E0" to="E3" fromLane="1" toLane="2" via=":clusterJ3_clusterJ7_clusterJ4_J6_J7_5_1" tl="J5" linkIndex="6" dir="r" state="o"/>
    <connection from="-E0" to="-E0.101" fromLane="1" toLane="1" via=":clusterJ3_clusterJ7_clusterJ4_J6_J7_7_0" tl="J5" linkIndex="7" dir="s" state="o"/>
    <connection from="-E0" to="-E0.101" fromLane="2" toLane="2" via=":clusterJ3_clusterJ7_clusterJ4_J6_J7_7_1" tl="J5" linkIndex="8" dir="s" state="o"/>
    <connection from="-E0" to="E1" fromLane="2" toLane="2" via=":clusterJ3_clusterJ7_clusterJ4_J6_J7_9_0" tl="J5" linkIndex="9" dir="l" state="o"/>
    <connection from="-E1" to="E0.88" fromLane="1" toLane="1" via=":clusterJ3_clusterJ7_clusterJ4_J6_J7_10_0" tl="J5" linkIndex="10" dir="r" state="o"/>
    <connection from="-E1" to="E3" fromLane="1" toLane="1" via=":clusterJ3_clusterJ7_clusterJ4_J6_J7_11_0" tl="J5" linkIndex="11" dir="s" state="o"/>
    <connection from="-E1" to="E3" fromLane="2" toLane="2" via=":clusterJ3_clusterJ7_clusterJ4_J6_J7_11_1" tl="J5" linkIndex="12" dir="s" state="o"/>
    <connection from="-E1" to="-E0.101" fromLane="2" toLane="1" via=":clusterJ3_clusterJ7_clusterJ4_J6_J7_13_0" tl="J5" linkIndex="13" dir="l" state="o"/>
    <connection from="-E1" to="-E0.101" fromLane="2" toLane="2" via=":clusterJ3_clusterJ7_clusterJ4_J6_J7_13_1" tl="J5" linkIndex="14" dir="l" state="o"/>