<?xml version="1.0" encoding="UTF-8"?>

<!-- generated on 2025-11-16T22:11:31.469681-04:00 by Eclipse SUMO sumo 1.25.0
-->

<sumoConfiguration xmlns:xsi="http://www.w3.org/2001/XMLSchema-instance" xsi:noNamespaceSchemaLocation="http://sumo.dlr.de/xsd/sumoConfiguration.xsd">

    <input>
        <net-file value="trigal_peatones.net.xml"/>
        <route-files value="trigal_peatones.rou.xml"/>
    </input>

</sumoConfiguration>
