<?xml version="1.0" encoding="UTF-8"?>

<!-- generated on 2025-11-16T18:52:22.476010-04:00 by Eclipse SUMO netedit 1.25.0
<neteditConfiguration xmlns:xsi="http://www.w3.org/2001/XMLSchema-instance" xsi:noNamespaceSchemaLocation="http://sumo.dlr.de/xsd/neteditConfiguration.xsd">

    <input>
        <sumocfg-file value="C:\Users\wmartinez\Documents\Whady\examples\trafficRL\trigal.sumocfg"/>
        <route-files value="C:\Users\wmartinez\Documents\Whady\examples\trafficRL\trigal.rou.xml"/>
        <sumo-net-file value="C:\Users\wmartinez\Documents\Whady\examples\trafficRL\trigal.net.xml"/>
    </input>

    <output>
        <output-file value="C:\Users\wmartinez\Documents\Whady\examples\trafficRL\trigal.net.xml"/>
    </output>

    <processing>
        <geometry.min-radius.fix.railways value="false"/>
        <geometry.avoid-overlap value="false"/>
        <geometry.max-grade.fix value="false"/>
        <offset.disable-normalization value="true"/>
        <lefthand value="0"/>
    </processing>

    <junctions>
        <no-internal-links value="false"/>
        <no-turnarounds value="true"/>
        <junctions.corner-detail value="5"/>
        <junctions.limit-turn-speed value="5.50"/>
        <rectangular-lane-cut value="0"/>
    </junctions>

    <pedestrian>
        <walkingareas value="0"/>
    </pedestrian>

</neteditConfiguration>
-->

<net version="1.20" junctionCornerDetail="5" limitTurnSpeed="5.50" avoidOverlap="0" xmlns:xsi="http://www.w3.org/2001/XMLSchema-instance" xsi:noNamespaceSchemaLocation="http://sumo.dlr.de/xsd/net_file.xsd">

    <location netOffset="0.00,0.00" convBoundary="-87.87,-98.83,97.88,107.52" origBoundary="-10000000000.00,-10000000000.00,10000000000.00,10000000000.00" projParameter="!"/>

    <edge id=":J0_w0" function="walkingarea">
        <lane id=":J0_w0_0" index="0" allow="pedestrian" speed="2.78" length="14.80" width="5.00" shape="-87.87,-7.05 -87.88,-9.05 -87.86,7.75 -87.87,5.75"/>
    </edge>
    <edge id=":J1_w0" function="walkingarea">
        <lane id=":J1_w0_0" index="0" allow="pedestrian" speed="2.78" length="14.80" width="5.00" shape="97.88,5.63 97.89,7.63 97.87,-9.17 97.88,-7.17"/>
    </edge>
    <edge id=":J4_w0" function="walkingarea">
        <lane id=":J4_w0_0" index="0" allow="pedestrian" speed="2.78" length="14.80" width="5.00" shape="7.17,-98.83 9.17,-98.83 -7.63,-98.83 -5.63,-98.83"/>
    </edge>
    <edge id=":J8_w0" function="walkingarea">
        <lane id=":J8_w0_0" index="0" allow="pedestrian" speed="2.78" length="14.80" width="5.00" shape="-5.78,107.52 -7.78,107.52 9.02,107.52 7.02,107.52"/>
    </edge>
    <edge id=":clusterJ3_clusterJ7_clusterJ4_J6_J7_0" function="internal">
        <lane id=":clusterJ3_clusterJ7_clusterJ4_J6_J7_0_0" index="0" disallow="pedestrian" speed="6.51" length="4.75" shape="-4.18,9.70 -4.53,7.25 -5.58,5.50 -5.78,5.38"/>
    </edge>
    <edge id=":clusterJ3_clusterJ7_clusterJ4_J6_J7_1" function="internal">
        <lane id=":clusterJ3_clusterJ7_clusterJ4_J6_J7_1_0" index="0" disallow="pedestrian" speed="13.89" length="20.82" shape="-4.18,9.70 -4.03,-11.12"/>
        <lane id=":clusterJ3_clusterJ7_clusterJ4_J6_J7_1_1" index="1" disallow="pedestrian" speed="13.89" length="20.82" shape="-0.98,9.70 -0.83,-11.12"/>
    </edge>
    <edge id=":clusterJ3_clusterJ7_clusterJ4_J6_J7_3" function="internal">
        <lane id=":clusterJ3_clusterJ7_clusterJ4_J6_J7_3_0" index="0" disallow="pedestrian" speed="9.29" length="5.15" shape="-0.98,9.70 -0.24,4.61"/>
    </edge>
    <edge id=":clusterJ3_clusterJ7_clusterJ4_J6_J7_16" function="internal">
        <lane id=":clusterJ3_clusterJ7_clusterJ4_J6_J7_16_0" index="0" disallow="pedestrian" speed="6.51" length="4.28" shape="-5.78,5.38 -7.33,4.45 -9.78,4.10"/>
    </edge>
    <edge id=":clusterJ3_clusterJ7_clusterJ4_J6_J7_17" function="internal">
        <lane id=":clusterJ3_clusterJ7_clusterJ4_J6_J7_17_0" index="0" disallow="pedestrian" speed="9.29" length="14.34" shape="-0.24,4.61 -0.22,4.45 2.06,0.69 5.86,-1.56 11.17,-2.32"/>
    </edge>
    <edge id=":clusterJ3_clusterJ7_clusterJ4_J6_J7_4" function="internal">
        <lane id=":clusterJ3_clusterJ7_clusterJ4_J6_J7_4_0" index="0" disallow="pedestrian" speed="6.55" length="4.87" shape="11.18,4.09 8.66,4.44 6.86,5.49 6.73,5.70"/>
    </edge>
    <edge id=":clusterJ3_clusterJ7_clusterJ4_J6_J7_5" function="internal">
        <lane id=":clusterJ3_clusterJ7_clusterJ4_J6_J7_5_0" index="0" disallow="pedestrian" speed="13.89" length="20.96" shape="11.18,4.09 -9.78,4.10"/>
        <lane id=":clusterJ3_clusterJ7_clusterJ4_J6_J7_5_1" index="1" disallow="pedestrian" speed="13.89" length="20.96" shape="11.18,0.89 -9.78,0.90"/>
    </edge>
    <edge id=":clusterJ3_clusterJ7_clusterJ4_J6_J7_7" function="internal">
        <lane id=":clusterJ3_clusterJ7_clusterJ4_J6_J7_7_0" index="0" disallow="pedestrian" speed="9.26" length="5.05" shape="11.18,0.89 6.17,0.18"/>
    </edge>
    <edge id=":clusterJ3_clusterJ7_clusterJ4_J6_J7_18" function="internal">
        <lane id=":clusterJ3_clusterJ7_clusterJ4_J6_J7_18_0" index="0" disallow="pedestrian" speed="6.55" length="4.30" shape="6.73,5.70 5.78,7.25 5.42,9.70"/>
    </edge>
    <edge id=":clusterJ3_clusterJ7_clusterJ4_J6_J7_19" function="internal">
        <lane id=":clusterJ3_clusterJ7_clusterJ4_J6_J7_19_0" index="0" disallow="pedestrian" speed="9.26" length="14.31" shape="6.17,0.18 5.92,0.14 2.17,-2.11 -0.08,-5.86 -0.83,-11.12"/>
    </edge>
    <edge id=":clusterJ3_clusterJ7_clusterJ4_J6_J7_8" function="internal">
        <lane id=":clusterJ3_clusterJ7_clusterJ4_J6_J7_8_0" index="0" disallow="pedestrian" speed="6.51" length="4.75" shape="5.57,-11.12 5.92,-8.66 6.97,-6.91 7.17,-6.79"/>
    </edge>
    <edge id=":clusterJ3_clusterJ7_clusterJ4_J6_J7_9" function="internal">
        <lane id=":clusterJ3_clusterJ7_clusterJ4_J6_J7_9_0" index="0" disallow="pedestrian" speed="13.89" length="20.82" shape="5.57,-11.12 5.42,9.70"/>
        <lane id=":clusterJ3_clusterJ7_clusterJ4_J6_J7_9_1" index="1" disallow="pedestrian" speed="13.89" length="20.82" shape="2.37,-11.12 2.22,9.70"/>
    </edge>
    <edge id=":clusterJ3_clusterJ7_clusterJ4_J6_J7_11" function="internal">
        <lane id=":clusterJ3_clusterJ7_clusterJ4_J6_J7_11_0" index="0" disallow="pedestrian" speed="9.29" length="5.15" shape="2.37,-11.12 1.63,-6.02"/>
    </edge>
    <edge id=":clusterJ3_clusterJ7_clusterJ4_J6_J7_20" function="internal">
        <lane id=":clusterJ3_clusterJ7_clusterJ4_J6_J7_20_0" index="0" disallow="pedestrian" speed="6.51" length="4.28" shape="7.17,-6.79 8.72,-5.87 11.17,-5.52"/>
    </edge>
    <edge id=":clusterJ3_clusterJ7_clusterJ4_J6_J7_21" function="internal">
        <lane id=":clusterJ3_clusterJ7_clusterJ4_J6_J7_21_0" index="0" disallow="pedestrian" speed="9.29" length="14.34" shape="1.63,-6.02 1.61,-5.86 -0.67,-2.10 -4.47,0.15 -9.78,0.90"/>
    </edge>
    <edge id=":clusterJ3_clusterJ7_clusterJ4_J6_J7_12" function="internal">
        <lane id=":clusterJ3_clusterJ7_clusterJ4_J6_J7_12_0" index="0" disallow="pedestrian" speed="6.55" length="4.87" shape="-9.79,-5.50 -7.27,-5.86 -5.47,-6.91 -5.34,-7.12"/>
    </edge>
    <edge id=":clusterJ3_clusterJ7_clusterJ4_J6_J7_13" function="internal">
        <lane id=":clusterJ3_clusterJ7_clusterJ4_J6_J7_13_0" index="0" disallow="pedestrian" speed="13.89" length="20.96" shape="-9.79,-5.50 11.17,-5.52"/>
        <lane id=":clusterJ3_clusterJ7_clusterJ4_J6_J7_13_1" index="1" disallow="pedestrian" speed="13.89" length="20.96" shape="-9.79,-2.30 11.17,-2.32"/>
    </edge>
    <edge id=":clusterJ3_clusterJ7_clusterJ4_J6_J7_15" function="internal">
        <lane id=":clusterJ3_clusterJ7_clusterJ4_J6_J7_15_0" index="0" disallow="pedestrian" speed="9.26" length="5.06" shape="-9.79,-2.30 -4.78,-1.59"/>
    </edge>
    <edge id=":clusterJ3_clusterJ7_clusterJ4_J6_J7_22" function="internal">
        <lane id=":clusterJ3_clusterJ7_clusterJ4_J6_J7_22_0" index="0" disallow="pedestrian" speed="6.55" length="4.30" shape="-5.34,-7.12 -4.39,-8.66 -4.03,-11.12"/>
    </edge>
    <edge id=":clusterJ3_clusterJ7_clusterJ4_J6_J7_23" function="internal">
        <lane id=":clusterJ3_clusterJ7_clusterJ4_J6_J7_23_0" index="0" disallow="pedestrian" speed="9.26" length="14.31" shape="-4.78,-1.59 -4.53,-1.56 -0.78,0.69 1.47,4.45 2.22,9.70"/>
    </edge>
    <edge id=":clusterJ3_clusterJ7_clusterJ4_J6_J7_c0" function="crossing" crossingEdges="E3 -E3">
        <lane id=":clusterJ3_clusterJ7_clusterJ4_J6_J7_c0_0" index="0" allow="pedestrian" speed="2.78" length="12.80" width="4.00" shape="7.02,7.70 -5.78,7.70" outlineShape="7.02,9.70 -5.88,9.70 -5.78,9.70 -5.89,8.48 -6.22,7.48 -6.78,6.70 -7.56,6.15 -7.89,6.04 -5.78,5.70 7.02,5.70 9.13,6.05 8.87,6.14 8.06,6.69 7.48,7.47 7.14,8.48"/>
    </edge>
    <edge id=":clusterJ3_clusterJ7_clusterJ4_J6_J7_c1" function="crossing" crossingEdges="E0.88 -E0">
        <lane id=":clusterJ3_clusterJ7_clusterJ4_J6_J7_c1_0" index="0" allow="pedestrian" speed="2.78" length="12.81" width="4.00" shape="9.17,-7.12 9.18,5.69" outlineShape="11.17,-7.12 11.18,5.69 11.18,5.79 11.18,5.69 9.91,5.80 8.87,6.14 8.06,6.69 7.48,7.47 7.38,7.76 7.18,5.69 7.17,-7.11 7.50,-9.23 7.61,-8.89 8.17,-8.11 8.95,-7.56 9.95,-7.23"/>
    </edge>
    <edge id=":clusterJ3_clusterJ7_clusterJ4_J6_J7_c2" function="crossing" crossingEdges="E1 -E1">
        <lane id=":clusterJ3_clusterJ7_clusterJ4_J6_J7_c2_0" index="0" allow="pedestrian" speed="2.78" length="12.80" width="4.00" shape="-5.63,-9.12 7.17,-9.12" outlineShape="-5.63,-11.12 7.27,-11.12 7.28,-9.89 7.61,-8.89 8.17,-8.11 8.95,-7.56 9.28,-7.45 7.17,-7.12 -5.63,-7.12 -7.74,-7.46 -7.48,-7.55 -6.67,-8.11 -6.09,-8.89 -5.75,-9.89"/>
    </edge>
    <edge id=":clusterJ3_clusterJ7_clusterJ4_J6_J7_c3" function="crossing" crossingEdges="-E0.101 E0">
        <lane id=":clusterJ3_clusterJ7_clusterJ4_J6_J7_c3_0" index="0" allow="pedestrian" speed="2.78" length="12.81" width="4.00" shape="-7.78,5.70 -7.79,-7.10" outlineShape="-9.78,5.70 -9.79,-7.10 -9.79,-7.20 -9.79,-7.10 -8.52,-7.22 -7.48,-7.55 -6.67,-8.11 -6.09,-8.89 -5.99,-9.18 -5.79,-7.11 -5.78,5.70 -6.11,7.81 -6.22,7.48 -6.78,6.70 -7.56,6.15 -8.56,5.81"/>
    </edge>
    <edge id=":clusterJ3_clusterJ7_clusterJ4_J6_J7_w0" function="walkingarea">
        <lane id=":clusterJ3_clusterJ7_clusterJ4_J6_J7_w0_0" index="0" allow="pedestrian" speed="2.78" length="3.30" width="4.00" shape="-9.78,5.70 -9.78,7.70 -7.78,9.70 -5.78,9.70 -5.89,8.48 -6.22,7.48 -6.78,6.70 -7.56,6.15 -8.56,5.81"/>
    </edge>
    <edge id=":clusterJ3_clusterJ7_clusterJ4_J6_J7_w1" function="walkingarea">
        <lane id=":clusterJ3_clusterJ7_clusterJ4_J6_J7_w1_0" index="0" allow="pedestrian" speed="2.78" length="3.37" width="4.00" shape="7.02,9.70 9.02,9.70 11.18,7.69 11.18,5.69 9.91,5.80 8.87,6.14 8.06,6.69 7.48,7.47 7.14,8.48"/>
    </edge>
    <edge id=":clusterJ3_clusterJ7_clusterJ4_J6_J7_w2" function="walkingarea">
        <lane id=":clusterJ3_clusterJ7_clusterJ4_J6_J7_w2_0" index="0" allow="pedestrian" speed="2.78" length="3.30" width="4.00" shape="11.17,-7.12 11.17,-9.12 9.17,-11.12 7.17,-11.12 7.28,-9.89 7.61,-8.89 8.17,-8.11 8.95,-7.56 9.95,-7.23"/>
    </edge>
    <edge id=":clusterJ3_clusterJ7_clusterJ4_J6_J7_w3" function="walkingarea">
        <lane id=":clusterJ3_clusterJ7_clusterJ4_J6_J7_w3_0" index="0" allow="pedestrian" speed="2.78" length="3.37" width="4.00" shape="-5.63,-11.12 -7.63,-11.12 -9.79,-9.10 -9.79,-7.10 -8.52,-7.22 -7.48,-7.55 -6.67,-8.11 -6.09,-8.89 -5.75,-9.89"/>
    </edge>

    <edge id="-E0" from="J1" to="clusterJ3_clusterJ7_clusterJ4_J6_J7" priority="-1" shape="97.88,-0.77 -3.97,-0.70">
        <lane id="-E0_0" index="0" allow="pedestrian" speed="13.89" length="86.71" width="2.00" shape="97.89,6.63 11.18,6.69"/>
        <lane id="-E0_1" index="1" disallow="pedestrian" speed="13.89" length="86.71" shape="97.88,4.03 11.18,4.09"/>
        <lane id="-E0_2" index="2" disallow="pedestrian" speed="13.89" length="86.71" shape="97.88,0.83 11.18,0.89"/>
    </edge>
    <edge id="-E0.101" from="clusterJ3_clusterJ7_clusterJ4_J6_J7" to="J0" priority="-1" shape="-3.97,-0.70 -87.87,-0.65">
        <lane id="-E0.101_0" index="0" allow="pedestrian" speed="13.89" length="78.09" width="2.00" shape="-9.78,6.70 -87.87,6.75"/>
        <lane id="-E0.101_1" index="1" disallow="pedestrian" speed="13.89" length="78.09" shape="-9.78,4.10 -87.87,4.15"/>
        <lane id="-E0.101_2" index="2" disallow="pedestrian" speed="13.89" length="78.09" shape="-9.78,0.90 -87.87,0.95"/>
    </edge>
    <edge id="-E1" from="J4" to="clusterJ3_clusterJ7_clusterJ4_J6_J7" priority="-1" shape="0.77,-98.83 0.77,-7.21">
        <lane id="-E1_0" index="0" allow="pedestrian" speed="13.89" length="87.71" width="2.00" shape="8.17,-98.83 8.17,-11.12"/>
        <lane id="-E1_1" index="1" disallow="pedestrian" speed="13.89" length="87.71" shape="5.57,-98.83 5.57,-11.12"/>
        <lane id="-E1_2" index="2" disallow="pedestrian" speed="13.89" length="87.71" shape="2.37,-98.83 2.37,-11.12"/>
    </edge>
    <edge id="-E3" from="J8" to="clusterJ3_clusterJ7_clusterJ4_J6_J7" priority="-1" shape="0.62,107.52 0.62,7.66">
        <lane id="-E3_0" index="0" allow="pedestrian" speed="13.89" length="97.82" width="2.00" shape="-6.78,107.52 -6.78,9.70"/>
        <lane id="-E3_1" index="1" disallow="pedestrian" speed="13.89" length="97.82" shape="-4.18,107.52 -4.18,9.70"/>
        <lane id="-E3_2" index="2" disallow="pedestrian" speed="13.89" length="97.82" shape="-0.98,107.52 -0.98,9.70"/>
    </edge>
    <edge id="E0" from="J0" to="clusterJ3_clusterJ7_clusterJ4_J6_J7" priority="-1" shape="-87.87,-0.65 0.65,-0.71">
        <lane id="E0_0" index="0" allow="pedestrian" speed="13.89" length="78.09" width="2.00" shape="-87.88,-8.05 -9.79,-8.10"/>
        <lane id="E0_1" index="1" disallow="pedestrian" speed="13.89" length="78.09" shape="-87.87,-5.45 -9.79,-5.50"/>
        <lane id="E0_2" index="2" disallow="pedestrian" speed="13.89" length="78.09" shape="-87.87,-2.25 -9.79,-2.30"/>
    </edge>
    <edge id="E0.88" from="clusterJ3_clusterJ7_clusterJ4_J6_J7" to="J1" priority="-1" shape="0.65,-0.71 97.88,-0.77">
        <lane id="E0.88_0" index="0" allow="pedestrian" speed="13.89" length="86.70" width="2.00" shape="11.17,-8.12 97.88,-8.17"/>
        <lane id="E0.88_1" index="1" disallow="pedestrian" speed="13.89" length="86.70" shape="11.17,-5.52 97.88,-5.57"/>
        <lane id="E0.88_2" index="2" disallow="pedestrian" speed="13.89" length="86.70" shape="11.17,-2.32 97.88,-2.37"/>
    </edge>
    <edge id="E1" from="clusterJ3_clusterJ7_clusterJ4_J6_J7" to="J4" priority="-1" shape="0.77,-7.21 0.77,-98.83">
        <lane id="E1_0" index="0" allow="pedestrian" speed="13.89" length="87.71" width="2.00" shape="-6.63,-11.12 -6.63,-98.83"/>
        <lane id="E1_1" index="1" disallow="pedestrian" speed="13.89" length="87.71" shape="-4.03,-11.12 -4.03,-98.83"/>
        <lane id="E1_2" index="2" disallow="pedestrian" speed="13.89" length="87.71" shape="-0.83,-11.12 -0.83,-98.83"/>
    </edge>
    <edge id="E3" from="clusterJ3_clusterJ7_clusterJ4_J6_J7" to="J8" priority="-1" shape="0.62,7.66 0.62,107.52">
        <lane id="E3_0" index="0" allow="pedestrian" speed="13.89" length="97.82" width="2.00" shape="8.02,9.70 8.02,107.52"/>
        <lane id="E3_1" index="1" disallow="pedestrian" speed="13.89" length="97.82" shape="5.42,9.70 5.42,107.52"/>
        <lane id="E3_2" index="2" disallow="pedestrian" speed="13.89" length="97.82" shape="2.22,9.70 2.22,107.52"/>
    </edge>

    <tlLogic id="J5" type="static" programID="0" offset="0">
        <phase duration="37" state="gGGgrrrrgGGgrrrrrGrG"/>
        <phase duration="5"  state="gGGgrrrrgGGgrrrrrrrr"/>
        <phase duration="3"  state="yyyyrrrryyyyrrrrrrrr"/>
        <phase duration="37" state="rrrrgGGgrrrrgGGgGrGr"/>
        <phase duration="5"  state="rrrrgGGgrrrrgGGgrrrr"/>
        <phase duration="3"  state="rrrryyyyrrrryyyyrrrr"/>
    </tlLogic>

    <junction id="J0" type="dead_end" x="-87.87" y="-0.65" incLanes="-E0.101_0 -E0.101_1 -E0.101_2" intLanes="" shape="-87.87,-0.65 -87.86,7.75 -87.87,-0.65"/>
    <junction id="J1" type="dead_end" x="97.88" y="-0.77" incLanes="E0.88_0 E0.88_1 E0.88_2" intLanes="" shape="97.88,-0.77 97.87,-9.17 97.88,-0.77"/>
    <junction id="J4" type="dead_end" x="0.77" y="-98.83" incLanes="E1_0 E1_1 E1_2" intLanes="" shape="0.77,-98.83 -7.63,-98.83 0.77,-98.83"/>
    <junction id="J8" type="dead_end" x="0.62" y="107.52" incLanes="E3_0 E3_1 E3_2" intLanes="" shape="0.62,107.52 9.02,107.52 0.62,107.52"/>
    <junction id="clusterJ3_clusterJ7_clusterJ4_J6_J7" type="traffic_light" x="0.34" y="-2.33" incLanes="-E3_0 -E3_1 -E3_2 -E0_0 -E0_1 -E0_2 -E1_0 -E1_1 -E1_2 E0_0 E0_1 E0_2 :clusterJ3_clusterJ7_clusterJ4_J6_J7_w1_0 :clusterJ3_clusterJ7_clusterJ4_J6_J7_w2_0 :clusterJ3_clusterJ7_clusterJ4_J6_J7_w3_0 :clusterJ3_clusterJ7_clusterJ4_J6_J7_w0_0" intLanes=":clusterJ3_clusterJ7_clusterJ4_J6_J7_16_0 :clusterJ3_clusterJ7_clusterJ4_J6_J7_1_0 :clusterJ3_clusterJ7_clusterJ4_J6_J7_1_1 :clusterJ3_clusterJ7_clusterJ4_J6_J7_17_0 :clusterJ3_clusterJ7_clusterJ4_J6_J7_18_0 :clusterJ3_clusterJ7_clusterJ4_J6_J7_5_0 :clusterJ3_clusterJ7_clusterJ4_J6_J7_5_1 :clusterJ3_clusterJ7_clusterJ4_J6_J7_19_0 :clusterJ3_clusterJ7_clusterJ4_J6_J7_20_0 :clusterJ3_clusterJ7_clusterJ4_J6_J7_9_0 :clusterJ3_clusterJ7_clusterJ4_J6_J7_9_1 :clusterJ3_clusterJ7_clusterJ4_J6_J7_21_0 :clusterJ3_clusterJ7_clusterJ4_J6_J7_22_0 :clusterJ3_clusterJ7_clusterJ4_J6_J7_13_0 :clusterJ3_clusterJ7_clusterJ4_J6_J7_13_1 :clusterJ3_clusterJ7_clusterJ4_J6_J7_23_0 :clusterJ3_clusterJ7_clusterJ4_J6_J7_c0_0 :clusterJ3_clusterJ7_clusterJ4_J6_J7_c1_0 :clusterJ3_clusterJ7_clusterJ4_J6_J7_c2_0 :clusterJ3_clusterJ7_clusterJ4_J6_J7_c3_0" shape="-7.78,9.70 9.02,9.70 9.26,8.58 9.56,8.19 9.98,7.91 10.52,7.75 11.18,7.69 11.17,-9.12 10.06,-9.34 9.67,-9.62 9.39,-10.00 9.23,-10.50 9.17,-11.12 -7.63,-11.12 -7.87,-10.00 -8.17,-9.61 -8.59,-9.33 -9.13,-9.16 -9.79,-9.10 -9.78,7.70 -8.67,7.93 -8.28,8.20 -8.00,8.59 -7.84,9.09">
        <request index="0"  response="10010000000000000000" foes="10010000000001100000" cont="1"/>
        <request index="1"  response="01011001000000000000" foes="01011111100011100000" cont="0"/>
        <request index="2"  response="01011000000010000000" foes="01011111100011100000" cont="0"/>
        <request index="3"  response="00111000011010000000" foes="00111110011011100000" cont="1"/>
        <request index="4"  response="00110000011000000000" foes="00110000011000000000" cont="1"/>
        <request index="5"  response="10100000111000001111" foes="10101000111000001111" cont="0"/>
        <request index="6"  response="10100000111000001111" foes="10101000111000001111" cont="0"/>
        <request index="7"  response="01100110111000001110" foes="01100110111000001110" cont="1"/>
        <request index="8"  response="01100000000000000000" foes="01100110000000000000" cont="1"/>
        <request index="9"  response="01010000000010010000" foes="01011110000011111000" cont="0"/>
        <request index="10" response="01011000000010000000" foes="01011110000011111000" cont="0"/>
        <request index="11" response="11001000000010000110" foes="11001110000011100110" cont="1"/>
        <request index="12" response="11000000000000000110" foes="11000000000000000110" cont="1"/>
        <request index="13" response="10100000111100001110" foes="10100000111110001110" cont="0"/>
        <request index="14" response="10100000111100001110" foes="10100000111110001110" cont="0"/>
        <request index="15" response="10010000111001101110" foes="10010000111001101110" cont="1"/>
        <request index="16" response="00000000000000000000" foes="00001000011000011111" cont="0"/>
        <request index="17" response="00000000000000000000" foes="00000110000111111000" cont="0"/>
        <request index="18" response="00000000000000000000" foes="00000001111110000110" cont="0"/>
        <request index="19" response="00000000000000000000" foes="00001111100001100001" cont="0"/>
    </junction>

    <junction id=":clusterJ3_clusterJ7_clusterJ4_J6_J7_16_0" type="internal" x="-5.78" y="5.38" incLanes=":clusterJ3_clusterJ7_clusterJ4_J6_J7_0_0" intLanes=":clusterJ3_clusterJ7_clusterJ4_J6_J7_5_0 :clusterJ3_clusterJ7_clusterJ4_J6_J7_5_1 :clusterJ3_clusterJ7_clusterJ4_J6_J7_11_0 :clusterJ3_clusterJ7_clusterJ4_J6_J7_c0_0 :clusterJ3_clusterJ7_clusterJ4_J6_J7_c3_0"/>
    <junction id=":clusterJ3_clusterJ7_clusterJ4_J6_J7_17_0" type="internal" x="-0.24" y="4.61" incLanes=":clusterJ3_clusterJ7_clusterJ4_J6_J7_3_0 -E1_1 -E1_2" intLanes=":clusterJ3_clusterJ7_clusterJ4_J6_J7_5_0 :clusterJ3_clusterJ7_clusterJ4_J6_J7_5_1 :clusterJ3_clusterJ7_clusterJ4_J6_J7_7_0 :clusterJ3_clusterJ7_clusterJ4_J6_J7_8_0 :clusterJ3_clusterJ7_clusterJ4_J6_J7_9_0 :clusterJ3_clusterJ7_clusterJ4_J6_J7_9_1 :clusterJ3_clusterJ7_clusterJ4_J6_J7_13_0 :clusterJ3_clusterJ7_clusterJ4_J6_J7_13_1 :clusterJ3_clusterJ7_clusterJ4_J6_J7_15_0 :clusterJ3_clusterJ7_clusterJ4_J6_J7_c0_0 :clusterJ3_clusterJ7_clusterJ4_J6_J7_c1_0"/>
    <junction id=":clusterJ3_clusterJ7_clusterJ4_J6_J7_18_0" type="internal" x="6.73" y="5.70" incLanes=":clusterJ3_clusterJ7_clusterJ4_J6_J7_4_0" intLanes=":clusterJ3_clusterJ7_clusterJ4_J6_J7_9_0 :clusterJ3_clusterJ7_clusterJ4_J6_J7_9_1 :clusterJ3_clusterJ7_clusterJ4_J6_J7_15_0 :clusterJ3_clusterJ7_clusterJ4_J6_J7_c0_0 :clusterJ3_clusterJ7_clusterJ4_J6_J7_c1_0"/>
    <junction id=":clusterJ3_clusterJ7_clusterJ4_J6_J7_19_0" type="internal" x="6.17" y="0.18" incLanes=":clusterJ3_clusterJ7_clusterJ4_J6_J7_7_0 E0_1 E0_2" intLanes=":clusterJ3_clusterJ7_clusterJ4_J6_J7_1_0 :clusterJ3_clusterJ7_clusterJ4_J6_J7_1_1 :clusterJ3_clusterJ7_clusterJ4_J6_J7_3_0 :clusterJ3_clusterJ7_clusterJ4_J6_J7_9_0 :clusterJ3_clusterJ7_clusterJ4_J6_J7_9_1 :clusterJ3_clusterJ7_clusterJ4_J6_J7_11_0 :clusterJ3_clusterJ7_clusterJ4_J6_J7_12_0 :clusterJ3_clusterJ7_clusterJ4_J6_J7_13_0 :clusterJ3_clusterJ7_clusterJ4_J6_J7_13_1 :clusterJ3_clusterJ7_clusterJ4_J6_J7_c1_0 :clusterJ3_clusterJ7_clusterJ4_J6_J7_c2_0"/>
    <junction id=":clusterJ3_clusterJ7_clusterJ4_J6_J7_20_0" type="internal" x="7.17" y="-6.79" incLanes=":clusterJ3_clusterJ7_clusterJ4_J6_J7_8_0" intLanes=":clusterJ3_clusterJ7_clusterJ4_J6_J7_3_0 :clusterJ3_clusterJ7_clusterJ4_J6_J7_13_0 :clusterJ3_clusterJ7_clusterJ4_J6_J7_13_1 :clusterJ3_clusterJ7_clusterJ4_J6_J7_c1_0 :clusterJ3_clusterJ7_clusterJ4_J6_J7_c2_0"/>
    <junction id=":clusterJ3_clusterJ7_clusterJ4_J6_J7_21_0" type="internal" x="1.63" y="-6.02" incLanes=":clusterJ3_clusterJ7_clusterJ4_J6_J7_11_0 -E3_1 -E3_2" intLanes=":clusterJ3_clusterJ7_clusterJ4_J6_J7_0_0 :clusterJ3_clusterJ7_clusterJ4_J6_J7_1_0 :clusterJ3_clusterJ7_clusterJ4_J6_J7_1_1 :clusterJ3_clusterJ7_clusterJ4_J6_J7_5_0 :clusterJ3_clusterJ7_clusterJ4_J6_J7_5_1 :clusterJ3_clusterJ7_clusterJ4_J6_J7_7_0 :clusterJ3_clusterJ7_clusterJ4_J6_J7_13_0 :clusterJ3_clusterJ7_clusterJ4_J6_J7_13_1 :clusterJ3_clusterJ7_clusterJ4_J6_J7_15_0 :clusterJ3_clusterJ7_clusterJ4_J6_J7_c2_0 :clusterJ3_clusterJ7_clusterJ4_J6_J7_c3_0"/>
    <junction id=":clusterJ3_clusterJ7_clusterJ4_J6_J7_22_0" type="internal" x="-5.34" y="-7.12" incLanes=":clusterJ3_clusterJ7_clusterJ4_J6_J7_12_0" intLanes=":clusterJ3_clusterJ7_clusterJ4_J6_J7_1_0 :clusterJ3_clusterJ7_clusterJ4_J6_J7_1_1 :clusterJ3_clusterJ7_clusterJ4_J6_J7_7_0 :clusterJ3_clusterJ7_clusterJ4_J6_J7_c2_0 :clusterJ3_clusterJ7_clusterJ4_J6_J7_c3_0"/>
    <junction id=":clusterJ3_clusterJ7_clusterJ4_J6_J7_23_0" type="internal" x="-4.78" y="-1.59" incLanes=":clusterJ3_clusterJ7_clusterJ4_J6_J7_15_0 -E0_1 -E0_2" intLanes=":clusterJ3_clusterJ7_clusterJ4_J6_J7_1_0 :clusterJ3_clusterJ7_clusterJ4_J6_J7_1_1 :clusterJ3_clusterJ7_clusterJ4_J6_J7_3_0 :clusterJ3_clusterJ7_clusterJ4_J6_J7_4_0 :clusterJ3_clusterJ7_clusterJ4_J6_J7_5_0 :clusterJ3_clusterJ7_clusterJ4_J6_J7_5_1 :clusterJ3_clusterJ7_clusterJ4_J6_J7_9_0 :clusterJ3_clusterJ7_clusterJ4_J6_J7_9_1 :clusterJ3_clusterJ7_clusterJ4_J6_J7_11_0 :clusterJ3_clusterJ7_clusterJ4_J6_J7_c0_0 :clusterJ3_clusterJ7_clusterJ4_J6_J7_c3_0"/>

    <connection from="-E0" to="E3" fromLane="1" toLane="1" via=":clusterJ3_clusterJ7_clusterJ4_J6_J7_4_0" tl="J5" linkIndex="4" dir="r" state="o"/>
    <connection from="-E0" to="-E0.101" fromLane="1" toLane="1" via=":clusterJ3_clusterJ7_clusterJ4_J6_J7_5_0" tl="J5" linkIndex="5" dir="s" state="o"/>
    <connection from="-E0" to="-E0.101" fromLane="2" toLane="2" via=":clusterJ3_clusterJ7_clusterJ4_J6_J7_5_1" tl="J5" linkIndex="6" dir="s" state="o"/>
    <connection from="-E0" to="E1" fromLane="2" toLane="2" via=":clusterJ3_clusterJ7_clusterJ4_J6_J7_7_0" tl="J5" linkIndex="7" dir="l" state="o"/>
    <connection from="-E1" to="E0.88" fromLane="1" toLane="1" via=":clusterJ3_clusterJ7_clusterJ4_J6_J7_8_0" tl="J5" linkIndex="8" dir="r" state="o"/>
    <connection from="-E1" to="E3" fromLane="1" toLane="1" via=":clusterJ3_clusterJ7_clusterJ4_J6_J7_9_0" tl="J5" linkIndex="9" dir="s" state="o"/>
    <connection from="-E1" to="E3" fromLane="2" toLane="2" via=":clusterJ3_clusterJ7_clusterJ4_J6_J7_9_1" tl="J5" linkIndex="10" dir="s" state="o"/>
    <connection from="-E1" to="-E0.101" fromLane="2" toLane="2" via=":clusterJ3_clusterJ7_clusterJ4_J6_J7_11_0" tl="J5" linkIndex="11" dir="l" state="o"/>
    <connection from="-E3" to="-E0.101" fromLane="1" toLane="1" via=":clusterJ3_clusterJ7_clusterJ4_J6_J7_0_0" tl="J5" linkIndex="0" dir="r" state="o"/>
    <connection from="-E3" to="E1" fromLane="1" toLane="1" via=":clusterJ3_clusterJ7_clusterJ4_J6_J7_1_0" tl="J5" linkIndex="1" dir="s" state="o"/>
    <connection from="-E3" to="E1" fromLane="2" toLane="2" via=":clusterJ3_clusterJ7_clusterJ4_J6_J7_1_1" tl="J5" linkIndex="2" dir="s" state="o"/>
    <connection from="-E3" to="E0.88" fromLane="2" toLane="2" via=":clusterJ3_clusterJ7_clusterJ4_J6_J7_3_0" tl="J5" linkIndex="3" dir="l" state="o"/>
    <connection from="E0" to="E1" fromLane="1" toLane="1" via=":clusterJ3_clusterJ7_clusterJ4_J6_J7_12_0" tl="J5" linkIndex="12" dir="r" state="o"/>
    <connection from="E0" to="E0.88" fromLane="1" toLane="1" via=":clusterJ3_clusterJ7_clusterJ4_J6_J7_13_0" tl="J5" linkIndex="13" dir="s" state="o"/>
    <connection from="E0" to="E0.88" fromLane="2" toLane="2" via=":clusterJ3_clusterJ7_clusterJ4_J6_J7_13_1" tl="J5" linkIndex="14" dir="s" state="o"/>
    <connection from="E0" to="E3" fromLane="2" toLane="2" via=":clusterJ3_clusterJ7_clusterJ4_J6_J7_15_0" tl="J5" linkIndex="15" dir="l" state="o"/>

    <connection from=":clusterJ3_clusterJ7_clusterJ4_J6_J7_0" to="-E0.101" fromLane="0" toLane="1" via=":clusterJ3_clusterJ7_clusterJ4_J6_J7_16_0" dir="r" state="m"/>
    <connection from=":clusterJ3_clusterJ7_clusterJ4_J6_J7_16" to="-E0.101" fromLane="0" toLane="1" dir="r" state="m"/>
    <connection from=":clusterJ3_clusterJ7_clusterJ4_J6_J7_1" to="E1" fromLane="0" toLane="1" dir="s" state="M"/>
    <connection from=":clusterJ3_clusterJ7_clusterJ4_J6_J7_1" to="E1" fromLane="1" toLane="2" dir="s" state="M"/>
    <connection from=":clusterJ3_clusterJ7_clusterJ4_J6_J7_3" to="E0.88" fromLane="0" toLane="2" via=":clusterJ3_clusterJ7_clusterJ4_J6_J7_17_0" dir="l" state="m"/>
    <connection from=":clusterJ3_clusterJ7_clusterJ4_J6_J7_17" to="E0.88" fromLane="0" toLane="2" dir="l" state="m"/>
    <connection from=":clusterJ3_clusterJ7_clusterJ4_J6_J7_4" to="E3" fromLane="0" toLane="1" via=":clusterJ3_clusterJ7_clusterJ4_J6_J7_18_0" dir="r" state="m"/>
    <connection from=":clusterJ3_clusterJ7_clusterJ4_J6_J7_18" to="E3" fromLane="0" toLane="1" dir="r" state="m"/>
    <connection from=":clusterJ3_clusterJ7_clusterJ4_J6_J7_5" to="-E0.101" fromLane="0" toLane="1" dir="s" state="M"/>
    <connection from=":clusterJ3_clusterJ7_clusterJ4_J6_J7_5" to="-E0.101" fromLane="1" toLane="2" dir="s" state="M"/>
    <connection from=":clusterJ3_clusterJ7_clusterJ4_J6_J7_7" to="E1" fromLane="0" toLane="2" via=":clusterJ3_clusterJ7_clusterJ4_J6_J7_19_0" dir="l" state="m"/>
    <connection from=":clusterJ3_clusterJ7_clusterJ4_J6_J7_19" to="E1" fromLane="0" toLane="2" dir="l" state="m"/>
    <connection from=":clusterJ3_clusterJ7_clusterJ4_J6_J7_8" to="E0.88" fromLane="0" toLane="1" via=":clusterJ3_clusterJ7_clusterJ4_J6_J7_20_0" dir="r" state="m"/>
    <connection from=":clusterJ3_clusterJ7_clusterJ4_J6_J7_20" to="E0.88" fromLane="0" toLane="1" dir="r" state="m"/>
    <connection from=":clusterJ3_clusterJ7_clusterJ4_J6_J7_9" to="E3" fromLane="0" toLane="1" dir="s" state="M"/>
    <connection from=":clusterJ3_clusterJ7_clusterJ4_J6_J7_9" to="E3" fromLane="1" toLane="2" dir="s" state="M"/>
    <connection from=":clusterJ3_clusterJ7_clusterJ4_J6_J7_11" to="-E0.101" fromLane="0" toLane="2" via=":clusterJ3_clusterJ7_clusterJ4_J6_J7_21_0" dir="l" state="m"/>
    <connection from=":clusterJ3_clusterJ7_clusterJ4_J6_J7_21" to="-E0.101" fromLane="0" toLane="2" dir="l" state="m"/>
    <connection from=":clusterJ3_clusterJ7_clusterJ4_J6_J7_12" to="E1" fromLane="0" toLane="1" via=":clusterJ3_clusterJ7_clusterJ4_J6_J7_22_0" dir="r" state="m"/>
    <connection from=":clusterJ3_clusterJ7_clusterJ4_J6_J7_22" to="E1" fromLane="0" toLane="1" dir="r" state="m"/>
    <connection from=":clusterJ3_clusterJ7_clusterJ4_J6_J7_13" to="E0.88" fromLane="0" toLane="1" dir="s" state="M"/>
    <connection from=":clusterJ3_clusterJ7_clusterJ4_J6_J7_13" to="E0.88" fromLane="1" toLane="2" dir="s" state="M"/>
    <connection from=":clusterJ3_clusterJ7_clusterJ4_J6_J7_15" to="E3" fromLane="0" toLane="2" via=":clusterJ3_clusterJ7_clusterJ4_J6_J7_23_0" dir="l" state="m"/>
    <connection from=":clusterJ3_clusterJ7_clusterJ4_J6_J7_23" to="E3" fromLane="0" toLane="2" dir="l" state="m"/>

    <connection from=":J0_w0" to="E0" fromLane="0" toLane="0" dir="s" state="M"/>
    <connection from="-E0.101" to=":J0_w0" fromLane="0" toLane="0" dir="s" state="M"/>
    <connection from=":J1_w0" to="-E0" fromLane="0" toLane="0" dir="s" state="M"/>
    <connection from="E0.88" to=":J1_w0" fromLane="0" toLane="0" dir="s" state="M"/>
    <connection from=":J4_w0" to="-E1" fromLane="0" toLane="0" dir="s" state="M"/>