<?xml version="1.0" encoding="UTF-8"?>

<!-- generated on 2025-11-08 21:59:54 by Eclipse SUMO sumo Version 1.24.0
-->

<sumoConfiguration xmlns:xsi="http://www.w3.org/2001/XMLSchema-instance" xsi:noNamespaceSchemaLocation="http://sumo.dlr.de/xsd/sumoConfiguration.xsd">

    <input>
        <net-file value="trigal.net.xml"/>
        <route-files value="trigal_flujo_bajo.rou.xml"/>
    </input>

</sumoConfiguration>
