<?xml version="1.0" encoding="UTF-8"?>

<!-- generated on 2025-11-19T15:59:01.315799-04:00 by Eclipse SUMO netedit 1.25.0
-->

<routes xmlns:xsi="http://www.w3.org/2001/XMLSchema-instance" xsi:noNamespaceSchemaLocation="http://sumo.dlr.de/xsd/routes_file.xsd">
    <!-- Vehicles, persons and containers (sorted by depart) -->
    <flow id="f_0" begin="0.00" end="3600.00" probability="0.02779999999999999832" from="-E3" to="-E0.101"/>
    <flow id="f_1" begin="0.00" end="3600.00" probability="0.02779999999999999832" from="-E3" to="E1"/>
    <flow id="f_2" begin="0.00" end="3600.00" probability="0.02779999999999999832" from="-E0" to="-E0.101"/>
    <flow id="f_3" begin="0.00" end="3600.00" probability="0.02779999999999999832" from="-E0" to="E3"/>
    <flow id="f_4" begin="0.00" end="3600.00" probability="0.02779999999999999832" from="E0" to="E3"/>
    <flow id="f_5" begin="0.00" end="3600.00" probability="0.02779999999999999832" from="E0" to="E0.88"/>
    <flow id="f_6" begin="0.00" end="3600.00" probability="0.02779999999999999832" from="E0" to="E1"/>
    <flow id="f_7" begin="0.00" end="3600.00" probability="0.02779999999999999832" from="-E1" to="E3"/>
    <flow id="f_8" begin="0.00" end="3600.00" probability="0.02779999999999999832" from="-E1" to="-E0.101"/>
    <flow id="f_9" begin="0.00" end="3600.00" probability="0.02779999999999999832" from="-E1" to="E0.88"/>
    <personFlow id="pf_0" begin="0.00" end="3600.00" period="exp(0.01000000000000000021)">
        <personTrip from="-E0" to="-E0.101"/>
    </personFlow>
    <personFlow id="pf_3" begin="0.00" end="3600.00" period="exp(0.01000000000000000021)">
        <personTrip from="E0" to="E0.88"/>
    </personFlow>
    <personFlow id="pf_4" begin="0.00" end="3600.00" period="exp(0.01000000000000000021)">
        <personTrip from="-E3" to="E1"/>
    </personFlow>
    <personFlow id="pf_5" begin="0.00" end="3600.00" period="exp(0.01000000000000000021)">
        <personTrip from="-E1" to="E3"/>
    </personFlow>
    <!-- Ambulance -->
    <vType id="ambulancia" vClass="emergency" guiShape="emergency" speedFactor="1.5" probability="1.0"/>
    <flow id="f_ambulancia" type="ambulancia" begin="0.00" end="3600.00" probability="0.01" from="-E3" to="E1"/>

</routes>
