<?xml version="1.0" encoding="UTF-8"?>

<!-- generated on 2025-11-08 21:58:04 by Eclipse SUMO netedit Version 1.24.0
<neteditConfiguration xmlns:xsi="http://www.w3.org/2001/XMLSchema-instance" xsi:noNamespaceSchemaLocation="http://sumo.dlr.de/xsd/neteditConfiguration.xsd">

    <input>
        <sumocfg-file value="C:\Users\User\Desktop\trigal_rl\trigal.sumocfg"/>
        <route-files value="C:\Users\User\Desktop\trigal_rl\trigal.rou.xml"/>
        <sumo-net-file value="C:\Users\User\Desktop\trigal_rl\trigal.net.xml"/>
    </input>

    <output>
        <output-file value="C:\Users\User\Desktop\trigal_rl\trigal.net.xml"/>
    </output>

    <processing>
        <geometry.min-radius.fix.railways value="false"/>
        <geometry.avoid-overlap value="false"/>
        <geometry.max-grade.fix value="false"/>
        <offset.disable-normalization value="true"/>
        <lefthand value="0"/>
    </processing>

    <junctions>
        <no-turnarounds value="true"/>
        <junctions.corner-detail value="5"/>
        <junctions.limit-turn-speed value="5.50"/>
        <rectangular-lane-cut value="0"/>
    </junctions>

    <pedestrian>
        <walkingareas value="0"/>
    </pedestrian>

</neteditConfiguration>
-->

<net version="1.20" junctionCornerDetail="5" limitTurnSpeed="5.50" avoidOverlap="0" xmlns:xsi="http://www.w3.org/2001/XMLSchema-instance" xsi:noNamespaceSchemaLocation="http://sumo.dlr.de/xsd/net_file.xsd">

    <location netOffset="0.00,0.00" convBoundary="-87.87,-98.83,97.88,107.52" origBoundary="-10000000000.00,-10000000000.00,10000000000.00,10000000000.00" projParameter="!"/>

    <edge id=":clusterJ3_clusterJ7_clusterJ4_J6_J7_0" function="internal">
        <lane id=":clusterJ3_clusterJ7_clusterJ4_J6_J7_0_0" index="0" speed="6.51" length="9.03" shape="-4.18,9.70 -4.53,7.25 -5.58,5.50 -7.33,4.45 -9.78,4.10"/>
        <lane id=":clusterJ3_clusterJ7_clusterJ4_J6_J7_0_1" index="1" speed="7.32" length="11.73" shape="-4.18,9.70 -4.53,5.85 -5.58,3.10 -7.33,1.45 -9.78,0.90"/>
    </edge>
    <edge id=":clusterJ3_clusterJ7_clusterJ4_J6_J7_2" function="internal">
        <lane id=":clusterJ3_clusterJ7_clusterJ4_J6_J7_2_0" index="0" speed="13.89" length="20.82" shape="-4.18,9.70 -4.03,-11.11"/>
        <lane id=":clusterJ3_clusterJ7_clusterJ4_J6_J7_2_1" index="1" speed="13.89" length="20.82" shape="-0.98,9.70 -0.83,-11.11"/>
    </edge>
    <edge id=":clusterJ3_clusterJ7_clusterJ4_J6_J7_4" function="internal">
        <lane id=":clusterJ3_clusterJ7_clusterJ4_J6_J7_4_0" index="0" speed="9.29" length="19.49" shape="-0.98,9.70 -0.22,4.45 2.06,0.69 5.86,-1.56 11.17,-2.32"/>
    </edge>
    <edge id=":clusterJ3_clusterJ7_clusterJ4_J6_J7_5" function="internal">
        <lane id=":clusterJ3_clusterJ7_clusterJ4_J6_J7_5_0" index="0" speed="6.55" length="9.17" shape="11.18,4.09 8.66,4.44 6.86,5.49 5.78,7.25 5.42,9.70"/>
        <lane id=":clusterJ3_clusterJ7_clusterJ4_J6_J7_5_1" index="1" speed="7.37" length="11.87" shape="11.18,4.09 7.26,4.44 4.46,5.50 2.78,7.25 2.22,9.70"/>
    </edge>
    <edge id=":clusterJ3_clusterJ7_clusterJ4_J6_J7_7" function="internal">
        <lane id=":clusterJ3_clusterJ7_clusterJ4_J6_J7_7_0" index="0" speed="13.89" length="20.96" shape="11.18,4.09 -9.78,4.10"/>
        <lane id=":clusterJ3_clusterJ7_clusterJ4_J6_J7_7_1" index="1" speed="13.89" length="20.96" shape="11.17,0.89 -9.78,0.90"/>
    </edge>
    <edge id=":clusterJ3_clusterJ7_clusterJ4_J6_J7_9" function="internal">
        <lane id=":clusterJ3_clusterJ7_clusterJ4_J6_J7_9_0" index="0" speed="9.26" length="19.36" shape="11.17,0.89 5.92,0.14 2.17,-2.11 -0.08,-5.86 -0.83,-11.11"/>
    </edge>
    <edge id=":clusterJ3_clusterJ7_clusterJ4_J6_J7_10" function="internal">
        <lane id=":clusterJ3_clusterJ7_clusterJ4_J6_J7_10_0" index="0" speed="6.51" length="9.03" shape="5.57,-11.11 5.92,-8.66 6.97,-6.91 8.72,-5.87 11.17,-5.52"/>
    </edge>
    <edge id=":clusterJ3_clusterJ7_clusterJ4_J6_J7_11" function="internal">
        <lane id=":clusterJ3_clusterJ7_clusterJ4_J6_J7_11_0" index="0" speed="13.89" length="20.82" shape="5.57,-11.11 5.42,9.70"/>
        <lane id=":clusterJ3_clusterJ7_clusterJ4_J6_J7_11_1" index="1" speed="13.89" length="20.82" shape="2.37,-11.11 2.22,9.70"/>
    </edge>
    <edge id=":clusterJ3_clusterJ7_clusterJ4_J6_J7_13" function="internal">
        <lane id=":clusterJ3_clusterJ7_clusterJ4_J6_J7_13_0" index="0" speed="9.87" length="22.12" shape="2.37,-11.11 1.61,-4.46 -0.67,0.30 -4.46,3.15 -9.78,4.10"/>
        <lane id=":clusterJ3_clusterJ7_clusterJ4_J6_J7_13_1" index="1" speed="9.29" length="19.49" shape="2.37,-11.11 1.61,-5.86 -0.67,-2.10 -4.47,0.15 -9.78,0.90"/>
    </edge>
    <edge id=":clusterJ3_clusterJ7_clusterJ4_J6_J7_15" function="internal">
        <lane id=":clusterJ3_clusterJ7_clusterJ4_J6_J7_15_0" index="0" speed="6.55" length="9.17" shape="-9.79,-5.50 -7.27,-5.86 -5.47,-6.91 -4.39,-8.66 -4.03,-11.11"/>
        <lane id=":clusterJ3_clusterJ7_clusterJ4_J6_J7_15_1" index="1" speed="7.37" length="11.87" shape="-9.79,-5.50 -5.87,-5.86 -3.07,-6.91 -1.39,-8.66 -0.83,-11.11"/>
    </edge>
    <edge id=":clusterJ3_clusterJ7_clusterJ4_J6_J7_17" function="internal">
        <lane id=":clusterJ3_clusterJ7_clusterJ4_J6_J7_17_0" index="0" speed="13.89" length="20.96" shape="-9.79,-5.50 11.17,-5.52"/>
        <lane id=":clusterJ3_clusterJ7_clusterJ4_J6_J7_17_1" index="1" speed="13.89" length="20.96" shape="-9.78,-2.30 11.17,-2.32"/>
    </edge>
    <edge id=":clusterJ3_clusterJ7_clusterJ4_J6_J7_19" function="internal">
        <lane id=":clusterJ3_clusterJ7_clusterJ4_J6_J7_19_0" index="0" speed="9.84" length="22.00" shape="-9.78,-2.30 -3.13,-1.56 1.62,0.69 4.47,4.45 5.42,9.70"/>
        <lane id=":clusterJ3_clusterJ7_clusterJ4_J6_J7_19_1" index="1" speed="9.26" length="19.36" shape="-9.78,-2.30 -4.53,-1.56 -0.78,0.69 1.47,4.45 2.22,9.70"/>
    </edge>

    <edge id="-E0" from="J1" to="clusterJ3_clusterJ7_clusterJ4_J6_J7" priority="-1" shape="97.88,-0.77 -3.97,-0.70">
        <lane id="-E0_0" index="0" speed="13.89" length="86.71" shape="97.88,4.03 11.18,4.09"/>
        <lane id="-E0_1" index="1" speed="13.89" length="86.71" shape="97.88,0.83 11.17,0.89"/>
    </edge>
    <edge id="-E0.101" from="clusterJ3_clusterJ7_clusterJ4_J6_J7" to="J0" priority="-1" shape="-3.97,-0.70 -87.87,-0.65">
        <lane id="-E0.101_0" index="0" speed="13.89" length="78.09" shape="-9.78,4.10 -87.87,4.15"/>
        <lane id="-E0.101_1" index="1" speed="13.89" length="78.09" shape="-9.78,0.90 -87.87,0.95"/>
    </edge>
    <edge id="-E1" from="J4" to="clusterJ3_clusterJ7_clusterJ4_J6_J7" priority="-1" shape="0.77,-98.83 0.77,-7.21">
        <lane id="-E1_0" index="0" speed="13.89" length="87.72" shape="5.57,-98.83 5.57,-11.11"/>
        <lane id="-E1_1" index="1" speed="13.89" length="87.72" shape="2.37,-98.83 2.37,-11.11"/>
    </edge>
    <edge id="-E3" from="J8" to="clusterJ3_clusterJ7_clusterJ4_J6_J7" priority="-1" shape="0.62,107.52 0.62,7.66">
        <lane id="-E3_0" index="0" speed="13.89" length="97.82" shape="-4.18,107.52 -4.18,9.70"/>
        <lane id="-E3_1" index="1" speed="13.89" length="97.82" shape="-0.98,107.52 -0.98,9.70"/>
    </edge>
    <edge id="E0" from="J0" to="clusterJ3_clusterJ7_clusterJ4_J6_J7" priority="-1" shape="-87.87,-0.65 0.65,-0.71">
        <lane id="E0_0" index="0" speed="13.89" length="78.09" shape="-87.87,-5.45 -9.79,-5.50"/>
        <lane id="E0_1" index="1" speed="13.89" length="78.09" shape="-87.87,-2.25 -9.78,-2.30"/>
    </edge>
    <edge id="E0.88" from="clusterJ3_clusterJ7_clusterJ4_J6_J7" to="J1" priority="-1" shape="0.65,-0.71 97.88,-0.77">
        <lane id="E0.88_0" index="0" speed="13.89" length="86.71" shape="11.17,-5.52 97.88,-5.57"/>
        <lane id="E0.88_1" index="1" speed="13.89" length="86.71" shape="11.17,-2.32 97.88,-2.37"/>
    </edge>
    <edge id="E1" from="clusterJ3_clusterJ7_clusterJ4_J6_J7" to="J4" priority="-1" shape="0.77,-7.21 0.77,-98.83">
        <lane id="E1_0" index="0" speed="13.89" length="87.72" shape="-4.03,-11.11 -4.03,-98.83"/>
        <lane id="E1_1" index="1" speed="13.89" length="87.72" shape="-0.83,-11.11 -0.83,-98.83"/>
    </edge>
    <edge id="E3" from="clusterJ3_clusterJ7_clusterJ4_J6_J7" to="J8" priority="-1" shape="0.62,7.66 0.62,107.52">
        <lane id="E3_0" index="0" speed="13.89" length="97.82" shape="5.42,9.70 5.42,107.52"/>
        <lane id="E3_1" index="1" speed="13.89" length="97.82" shape="2.22,9.70 2.22,107.52"/>
    </edge>

    <tlLogic id="J5" type="static" programID="0" offset="0">
        <phase duration="20" state="GGGGOrrrrOGGGrrrrrrrr"/>
        <phase duration="3"  state="yyyyrrrrrryyyrrrrrrrr"/>
        <phase duration="40" state="rrrrrGGGGrrrrrrGGGGrr"/>
        <phase duration="3"  state="rrrrryyyyrrrrrryyyyrr"/>
        <phase duration="20" state="GrrrrrrrrrrrrrrGGGGGG"/>
        <phase duration="3"  state="yrrrrrrrrrrrrrryyyyyy"/>
        <phase duration="15" state="rrrrrrrrrrGGGGGrrrrrr"/>
        <phase duration="3"  state="rrrrrrrrrrGGGyyrrrrrr"/>
    </tlLogic>

    <junction id="J0" type="dead_end" x="-87.87" y="-0.65" incLanes="-E0.101_0 -E0.101_1" intLanes="" shape="-87.87,-0.65 -87.87,5.75 -87.87,-0.65"/>
    <junction id="J1" type="dead_end" x="97.88" y="-0.77" incLanes="E0.88_0 E0.88_1" intLanes="" shape="97.88,-0.77 97.88,-7.17 97.88,-0.77"/>
    <junction id="J4" type="dead_end" x="0.77" y="-98.83" incLanes="E1_0 E1_1" intLanes="" shape="0.77,-98.83 -5.63,-98.83 0.77,-98.83"/>
    <junction id="J8" type="dead_end" x="0.62" y="107.52" incLanes="E3_0 E3_1" intLanes="" shape="0.62,107.52 7.02,107.52 0.62,107.52"/>
    <junction id="clusterJ3_clusterJ7_clusterJ4_J6_J7" type="traffic_light" x="0.34" y="-2.33" incLanes="-E3_0 -E3_1 -E0_0 -E0_1 -E1_0 -E1_1 E0_0 E0_1" intLanes=":clusterJ3_clusterJ7_clusterJ4_J6_J7_0_0 :clusterJ3_clusterJ7_clusterJ4_J6_J7_0_1 :clusterJ3_clusterJ7_clusterJ4_J6_J7_2_0 :clusterJ3_clusterJ7_clusterJ4_J6_J7_2_1 :clusterJ3_clusterJ7_clusterJ4_J6_J7_4_0 :clusterJ3_clusterJ7_clusterJ4_J6_J7_5_0 :clusterJ3_clusterJ7_clusterJ4_J6_J7_5_1 :clusterJ3_clusterJ7_clusterJ4_J6_J7_7_0 :clusterJ3_clusterJ7_clusterJ4_J6_J7_7_1 :clusterJ3_clusterJ7_clusterJ4_J6_J7_9_0 :clusterJ3_clusterJ7_clusterJ4_J6_J7_10_0 :clusterJ3_clusterJ7_clusterJ4_J6_J7_11_0 :clusterJ3_clusterJ7_clusterJ4_J6_J7_11_1 :clusterJ3_clusterJ7_clusterJ4_J6_J7_13_0 :clusterJ3_clusterJ7_clusterJ4_J6_J7_13_1 :clusterJ3_clusterJ7_clusterJ4_J6_J7_15_0 :clusterJ3_clusterJ7_clusterJ4_J6_J7_15_1 :clusterJ3_clusterJ7_clusterJ4_J6_J7_17_0 :clusterJ3_clusterJ7_clusterJ4_J6_J7_17_1 :clusterJ3_clusterJ7_clusterJ4_J6_J7_19_0 :clusterJ3_clusterJ7_clusterJ4_J6_J7_19_1" shape="-5.78,9.70 7.02,9.70 7.48,7.47 8.06,6.69 8.87,6.14 9.91,5.80 11.18,5.69 11.17,-7.12 8.95,-7.56 8.17,-8.11 7.61,-8.89 7.28,-9.89 7.17,-11.11 -5.63,-11.11 -6.09,-8.89 -6.67,-8.11 -7.48,-7.55 -8.52,-7.22 -9.79,-7.10 -9.78,5.70 -7.56,6.15 -6.78,6.70 -6.22,7.48 -5.89,8.48">
        <request index="0"  response="000000000000000000000" foes="000000110000110000000" cont="0"/>
        <request index="1"  response="000000000000000000000" foes="000000110000110000000" cont="0"/>
        <request index="2"  response="000000000000000000000" foes="111111110001110000000" cont="0"/>
        <request index="3"  response="000000000000000000000" foes="111111110001110000000" cont="0"/>
        <request index="4"  response="000000001100000000000" foes="111100001101110000000" cont="0"/>
        <request index="5"  response="000000001100000000000" foes="110000001100000000000" cont="0"/>
        <request index="6"  response="000000001100000000000" foes="110000001100000000000" cont="0"/>
        <request index="7"  response="000000111100000011111" foes="110000111100000011111" cont="0"/>
        <request index="8"  response="000000111100000011111" foes="110000111100000011111" cont="0"/>
        <request index="9"  response="001111111100000011100" foes="001111111100000011100" cont="0"/>
        <request index="10" response="000000000000000000000" foes="001100000000000000000" cont="0"/>
        <request index="11" response="000000000000000000000" foes="111100000001111110000" cont="0"/>
        <request index="12" response="000000000000000000000" foes="111100000001111110000" cont="0"/>
        <request index="13" response="000000000000000001111" foes="111100000001110001111" cont="0"/>
        <request index="14" response="000000000000000001111" foes="111100000001110001111" cont="0"/>
        <request index="15" response="000000000000000001100" foes="000000000001000001100" cont="0"/>
        <request index="16" response="000000000000000001100" foes="000000000001000001100" cont="0"/>
        <request index="17" response="000000111110000011100" foes="000000111111000011100" cont="0"/>
        <request index="18" response="000000111110000011100" foes="000000111111000011100" cont="0"/>
        <request index="19" response="000000111100111111100" foes="000000111100111111100" cont="0"/>
        <request index="20" response="000000111100111111100" foes="000000111100111111100" cont="0"/>
    </junction>

    <connection from="-E0" to="E3" fromLane="0" toLane="0" via=":clusterJ3_clusterJ7_clusterJ4_J6_J7_5_0" tl="J5" linkIndex="5" dir="r" state="o"/>
    <connection from="-E0" to="E3" fromLane="0" toLane="1" via=":clusterJ3_clusterJ7_clusterJ4_J6_J7_5_1" tl="J5" linkIndex="6" dir="r" state="o"/>
    <connection from="-E0" to="-E0.101" fromLane="0" toLane="0" via=":clusterJ3_clusterJ7_clusterJ4_J6_J7_7_0" tl="J5" linkIndex="7" dir="s" state="o"/>
    <connection from="-E0" to="-E0.101" fromLane="1" toLane="1" via=":clusterJ3_clusterJ7_clusterJ4_J6_J7_7_1" tl="J5" linkIndex="8" dir="s" state="o"/>
    <connection from="-E0" to="E1" fromLane="1" toLane="1" via=":clusterJ3_clusterJ7_clusterJ4_J6_J7_9_0" tl="J5" linkIndex="9" dir="l" state="o"/>
    <connection from="-E1" to="E0.88" fromLane="0" toLane="0" via=":clusterJ3_clusterJ7_clusterJ4_J6_J7_10_0" tl="J5" linkIndex="10" dir="r" state="O"/>
    <connection from="-E1" to="E3" fromLane="0" toLane="0" via=":clusterJ3_clusterJ7_clusterJ4_J6_J7_11_0" tl="J5" linkIndex="11" dir="s" state="O"/>
    <connection from="-E1" to="E3" fromLane="1" toLane="1" via=":clusterJ3_clusterJ7_clusterJ4_J6_J7_11_1" tl="J5" linkIndex="12" dir="s" state="O"/>
    <connection from="-E1" to="-E0.101" fromLane="1" toLane="0" via=":clusterJ3_clusterJ7_clusterJ4_J6_J7_13_0" tl="J5" linkIndex="13" dir="l" state="o"/>
    <connection from="-E1" to="-E0.101" fromLane="1" toLane="1" via=":clusterJ3_clusterJ7_clusterJ4_J6_J7_13_1" tl="J5" linkIndex="14" dir="l" state="o"/>
    <connection from="-E3" to="-E0.101" fromLane="0" toLane="0" via=":clusterJ3_clusterJ7_clusterJ4_J6_J7_0_0" tl="J5" linkIndex="0" dir="r" state="O"/>
    <connection from="-E3" to="-E0.101" fromLane="0" toLane="1" via=":clusterJ3_clusterJ7_clusterJ4_J6_J7_0_1" tl="J5" linkIndex="1" dir="r" state="O"/>
    <connection from="-E3" to="E1" fromLane="0" toLane="0" via=":clusterJ3_clusterJ7_clusterJ4_J6_J7_2_0" tl="J5" linkIndex="2" dir="s" state="O"/>
    <connection from="-E3" to="E1" fromLane="1" toLane="1" via=":clusterJ3_clusterJ7_clusterJ4_J6_J7_2_1" tl="J5" linkIndex="3" dir="s" state="O"/>
    <connection from="-E3" to="E0.88" fromLane="1" toLane="1" via=":clusterJ3_clusterJ7_clusterJ4_J6_J7_4_0" tl="J5" linkIndex="4" dir="l" state="o"/>
    <connection from="E0" to="E1" fromLane="0" toLane="0" via=":clusterJ3_clusterJ7_clusterJ4_J6_J7_15_0" tl="J5" linkIndex="15" dir="r" state="o"/>
    <connection from="E0" to="E1" fromLane="0" toLane="1" via=":clusterJ3_clusterJ7_clusterJ4_J6_J7_15_1" tl="J5" linkIndex="16" dir="r" state="o"/>
    <connection from="E0" to="E0.88" fromLane="0" toLane="0" via=":clusterJ3_clusterJ7_clusterJ4_J6_J7_17_0" tl="J5" linkIndex="17" dir="s" state="o"/>
    <connection from="E0" to="E0.88" fromLane="1" toLane="1" via=":clusterJ3_clusterJ7_clusterJ4_J6_J7_17_1" tl="J5" linkIndex="18" dir="s" state="o"/>
    <connection from="E0" to="E3" fromLane="1" toLane="0" via=":clusterJ3_clusterJ7_clusterJ4_J6_J7_19_0" tl="J5" linkIndex="19" dir="l" state="o"/>
    <connection from="E0" to="E3" fromLane="1" toLane="1" via=":clusterJ3_clusterJ7_clusterJ4_J6_J7_19_1" tl="J5" linkIndex="20" dir="l" state="o"/>

    <connection from=":clusterJ3_clusterJ7_clusterJ4_J6_J7_0" to="-E0.101" fromLane="0" toLane="0" dir="r" state="M"/>
    <connection from=":clusterJ3_clusterJ7_clusterJ4_J6_J7_0" to="-E0.101" fromLane="1" toLane="1" dir="r" state="M"/>
    <connection from=":clusterJ3_clusterJ7_clusterJ4_J6_J7_2" to="E1" fromLane="0" toLane="0" dir="s" state="M"/>
    <connection from=":clusterJ3_clusterJ7_clusterJ4_J6_J7_2" to="E1" fromLane="1" toLane="1" dir="s" state="M"/>
    <connection from=":clusterJ3_clusterJ7_clusterJ4_J6_J7_4" to="E0.88" fromLane="0" toLane="1" dir="l" state="M"/>
    <connection from=":clusterJ3_clusterJ7_clusterJ4_J6_J7_5" to="E3" fromLane="0" toLane="0" dir="r" state="M"/>
    <connection from=":clusterJ3_clusterJ7_clusterJ4_J6_J7_5" to="E3" fromLane="1" toLane="1" dir="r" state="M"/>
    <connection from=":clusterJ3_clusterJ7_clusterJ4_J6_J7_7" to="-E0.101" fromLane="0" toLane="0" dir="s" state="M"/>
    <connection from=":clusterJ3_clusterJ7_clusterJ4_J6_J7_7" to="-E0.101" fromLane="1" toLane="1" dir="s" state="M"/>
    <connection from=":clusterJ3_clusterJ7_clusterJ4_J6_J7_9" to="E1" fromLane="0" toLane="1" dir="l" state="M"/>
    <connection from=":clusterJ3_clusterJ7_clusterJ4_J6_J7_10" to="E0.88" fromLane="0" toLane="0" dir="r" state="M"/>
    <connection from=":clusterJ3_clusterJ7_clusterJ4_J6_J7_11" to="E3" fromLane="0" toLane="0" dir="s" state="M"/>
    <connection from=":clusterJ3_clusterJ7_clusterJ4_J6_J7_11" to="E3" fromLane="1" toLane="1" dir="s" state="M"/>
    <connection from=":clusterJ3_clusterJ7_clusterJ4_J6_J7_13" to="-E0.101" fromLane="0" toLane="0" dir="l" state="M"/>
    <connection from=":clusterJ3_clusterJ7_clusterJ4_J6_J7_13" to="-E0.101" fromLane="1" toLane="1" dir="l" state="M"/>
    <connection from=":clusterJ3_clusterJ7_clusterJ4_J6_J7_15" to="E1" fromLane="0" toLane="0" dir="r" state="M"/>
    <connection from=":clusterJ3_clusterJ7_clusterJ4_J6_J7_15" to="E1" fromLane="1" toLane="1" dir="r" state="M"/>
    <connection from=":clusterJ3_clusterJ7_clusterJ4_J6_J7_17" to="E0.88" fromLane="0" toLane="0" dir="s" state="M"/>
    <connection from=":clusterJ3_clusterJ7_clusterJ4_J6_J7_17" to="E0.88" fromLane="1" toLane="1" dir="s" state="M"/>
    <connection from=":clusterJ3_clusterJ7_clusterJ4_J6_J7_19" to="E3" fromLane="0" toLane="0" dir="l" state="M"/>
    <connection from=":clusterJ3_clusterJ7_clusterJ4_J6_J7_19" to="E3" fromLane="1" toLane="1" dir="l" state="M"/>

</net>
